pglib_opf_case20758_epigrids/pglib_opf_case20758_epigrids_10regions.m
% -------------------------------------------------------------------------
% Partitioned MATPOWER Case File
% Copyright (c) 2025 Milad Hasanzadeh
% Generated on: 2026-05-21
% This file contains partitioned data for 10 regions


% -------------------- mpc_regionR1 --------------------

mpc_regionR1.version = '2';
mpc_regionR1.baseMVA = 100.0000;
mpc_regionR1.bus = [
%	bus_i       type        Pd          Qd          Gs          Bs          area        Vm          Va          baseKV      zone        Vmax        Vmin        
	 1	 2	 0	 0	 0	 0	 10	 1	 0	 500	 1	 1.1	 0.9;
	 2	 2	 0	 0	 0	 0	 10	 1	 0	 345	 1	 1.1	 0.9;
	 3	 2	 0	 0	 0	 0	 10	 1	 0	 500	 1	 1.1	 0.9;
	 4	 2	 0	 0	 0	 0	 10	 1	 0	 345	 1	 1.1	 0.9;
	 5	 2	 0	 0	 0	 0	 10	 1	 0	 230	 1	 1.1	 0.9;
	 6	 2	 0	 0	 0	 0	 10	 1	 0	 138	 1	 1.1	 0.9;
	 7	 2	 0	 0	 0	 0	 10	 1	 0	 500	 1	 1.1	 0.9;
	 8	 2	 0	 0	 0	 0	 10	 1	 0	 500	 1	 1.1	 0.9;
	 9	 2	 0	 0	 0	 0	 10	 1	 0	 138	 1	 1.1	 0.9;
	 10	 2	 0	 0	 0	 0	 10	 1	 0	 230	 1	 1.1	 0.9;
	 11	 2	 0	 0	 0	 0	 10	 1	 0	 500	 1	 1.1	 0.9;
	 12	 1	 0	 0	 0	 49.27	 10	 1	 0	 500	 1	 1.1	 0.9;
	 13	 2	 0	 0	 0	 0	 10	 1	 0	 138	 1	 1.1	 0.9;
	 14	 2	 0	 0	 0	 0	 10	 1	 0	 138	 1	 1.1	 0.9;
	 15	 2	 0	 0	 0	 0	 10	 1	 0	 500	 1	 1.1	 0.9;
	 16	 2	 0	 0	 0	 0	 10	 1	 0	 138	 1	 1.1	 0.9;
	 17	 2	 0	 0	 0	 0	 10	 1	 0	 138	 1	 1.1	 0.9;
	 18	 2	 0	 0	 0	 0	 10	 1	 0	 138	 1	 1.1	 0.9;
	 19	 2	 0	 0	 0	 0	 10	 1	 0	 500	 1	 1.1	 0.9;
	 20	 2	 0	 0	 0	 0	 10	 1	 0	 138	 1	 1.1	 0.9;
	 21	 2	 0	 0	 0	 0	 10	 1	 0	 138	 1	 1.1	 0.9;
	 22	 2	 0	 0	 0	 0	 10	 1	 0	 230	 1	 1.1	 0.9;
	 23	 1	 0	 0	 0	 0	 10	 1	 0	 345	 1	 1.1	 0.9;
	 24	 2	 0	 0	 0	 0	 10	 1	 0	 138	 1	 1.1	 0.9;
	 25	 2	 0	 0	 0	 0	 10	 1	 0	 138	 1	 1.1	 0.9;
	 26	 2	 0	 0	 0	 0	 10	 1	 0	 69	 1	 1.1	 0.9;
	 27	 2	 0	 0	 0	 0	 10	 1	 0	 138	 1	 1.1	 0.9;
	 28	 1	 0	 0	 0	 0	 10	 1	 0	 345	 1	 1.1	 0.9;
	 29	 1	 0	 0	 0	 0	 10	 1	 0	 345	 1	 1.1	 0.9;
	 30	 2	 0	 0	 0	 0	 10	 1	 0	 138	 1	 1.1	 0.9;
	 31	 2	 0	 0	 0	 0	 10	 1	 0	 138	 1	 1.1	 0.9;
	 32	 2	 0	 0	 0	 0	 10	 1	 0	 138	 1	 1.1	 0.9;
	 33	 2	 0	 0	 0	 0	 10	 1	 0	 138	 1	 1.1	 0.9;
	 34	 2	 0	 0	 0	 0	 10	 1	 0	 138	 1	 1.1	 0.9;
	 35	 2	 0	 0	 0	 0	 10	 1	 0	 69	 1	 1.1	 0.9;
	 36	 1	 0	 0	 0	 10.11	 10	 1	 0	 345	 1	 1.1	 0.9;
	 37	 2	 0	 0	 0	 0	 10	 1	 0	 138	 1	 1.1	 0.9;
	 38	 2	 0	 0	 0	 0	 10	 1	 0	 138	 1	 1.1	 0.9;
	 39	 2	 0	 0	 0	 0	 10	 1	 0	 345	 1	 1.1	 0.9;
	 40	 1	 12.9	 2.18	 0	 0	 10	 1	 0	 69	 1	 1.1	 0.9;
	 41	 1	 0	 0	 0	 0	 10	 1	 0	 345	 1	 1.1	 0.9;
	 42	 1	 8.82	 1.5	 0	 0	 10	 1	 0	 69	 1	 1.1	 0.9;
	 43	 1	 10.37	 2.2	 0	 0	 10	 1	 0	 138	 1	 1.1	 0.9;
	 44	 1	 0	 0	 0	 0	 10	 1	 0	 138	 1	 1.1	 0.9;
	 45	 1	 9.61	 1.79	 0	 0	 10	 1	 0	 138	 1	 1.1	 0.9;
	 46	 1	 5.67	 0.89	 0	 0	 10	 1	 0	 69	 1	 1.1	 0.9;
	 47	 1	 4.34	 0.87	 0	 0	 10	 1	 0	 69	 1	 1.1	 0.9;
	 48	 1	 50.31	 16.94	 0	 0	 10	 1	 0	 138	 1	 1.1	 0.9;
	 49	 1	 0	 0	 0	 0	 10	 1	 0	 138	 1	 1.1	 0.9;
	 50	 1	 2.56	 0.57	 0	 0	 10	 1	 0	 69	 1	 1.1	 0.9;
	 51	 1	 3.8	 0.93	 0	 0	 10	 1	 0	 138	 1	 1.1	 0.9;
	 52	 1	 5.86	 1.52	 0	 0	 10	 1	 0	 69	 1	 1.1	 0.9;
	 53	 1	 2.77	 0.29	 0	 0	 10	 1	 0	 69	 1	 1.1	 0.9;
	 54	 1	 3.6	 1.01	 0	 0	 10	 1	 0	 69	 1	 1.1	 0.9;
	 55	 1	 10.07	 2.34	 0	 0	 10	 1	 0	 69	 1	 1.1	 0.9;
	 56	 1	 1.89	 0.5	 0	 0	 10	 1	 0	 69	 1	 1.1	 0.9;
	 57	 1	 3.45	 0.68	 0	 0	 10	 1	 0	 69	 1	 1.1	 0.9;
	 58	 1	 3.16	 0.44	 0	 0	 10	 1	 0	 69	 1	 1.1	 0.9;
	 59	 1	 0	 0	 0	 0	 10	 1	 0	 138	 1	 1.1	 0.9;
	 60	 1	 0	 0	 0	 0	 10	 1	 0	 138	 1	 1.1	 0.9;
	 61	 1	 6.94	 1.51	 0	 0	 10	 1	 0	 138	 1	 1.1	 0.9;
	 62	 1	 4.21	 0.59	 0	-82.32	 10	 1	 0	 230	 1	 1.1	 0.9;
	 63	 1	 4.4	 0	 0	 0	 10	 1	 0	 69	 1	 1.1	 0.9;
	 64	 1	 8.76	 2.12	 0	 20.02	 10	 1	 0	 230	 1	 1.1	 0.9;
	 65	 1	 0	 0	 0	 13.45	 10	 1	 0	 230	 1	 1.1	 0.9;
	 66	 1	 0	 0	 0	-131.92	 10	 1	 0	 230	 1	 1.1	 0.9;
	 67	 1	 9.97	 2.18	 0	 0	 10	 1	 0	 138	 1	 1.1	 0.9;
	 68	 1	 14.06	 4.02	 0	 0	 10	 1	 0	 138	 1	 1.1	 0.9;
	 69	 1	 19.22	-10.45	 0	 0	 10	 1	 0	 69	 1	 1.1	 0.9;
	 70	 1	 3.39	 0.51	 0	 0	 10	 1	 0	 69	 1	 1.1	 0.9;
	 71	 1	 0	 0	 0	 0	 10	 1	 0	 230	 1	 1.1	 0.9;
	 72	 1	 16.78	 4.2	 0	 0	 10	 1	 0	 69	 1	 1.1	 0.9;
	 73	 1	 15.94	 2.36	 0	 0	 10	 1	 0	 69	 1	 1.1	 0.9;
	 74	 1	 0	 0	 0	-26.08	 10	 1	 0	 345	 1	 1.1	 0.9;
	 75	 1	 1.47	 0.3	 0	 0	 10	 1	 0	 69	 1	 1.1	 0.9;
	 76	 1	 9.29	 2.44	 0	 0	 10	 1	 0	 69	 1	 1.1	 0.9;
	 77	 1	 2.81	 0	 0	 0	 10	 1	 0	 69	 1	 1.1	 0.9;
	 78	 1	 0	 0	 0	 0	 10	 1	 0	 138	 1	 1.1	 0.9;
	 79	 1	 3.77	 0.99	 0	 0	 10	 1	 0	 69	 1	 1.1	 0.9;
	 80	 1	 4.55	 1.14	 0	 0	 10	 1	 0	 69	 1	 1.1	 0.9;
	 81	 1	 54.11	 14.76	 0	 0	 10	 1	 0	 138	 1	 1.1	 0.9;
	 82	 1	 7.75	 0	 0	 0	 10	 1	 0	 69	 1	 1.1	 0.9;
	 83	 1	 6.26	 0	 0	 0	 10	 1	 0	 69	 1	 1.1	 0.9;
	 84	 1	 4.36	 0	 0	 0	 10	 1	 0	 69	 1	 1.1	 0.9;
	 85	 1	 5.31	 0	 0	 0	 10	 1	 0	 69	 1	 1.1	 0.9;
	 86	 1	 7.9	 0	 0	 0	 10	 1	 0	 69	 1	 1.1	 0.9;
	 87	 1	 9.35	 0	 0	 0	 10	 1	 0	 69	 1	 1.1	 0.9;
	 88	 1	 5.42	 0	 0	 0	 10	 1	 0	 69	 1	 1.1	 0.9;
	 89	 1	 7.87	 0	 0	 0	 10	 1	 0	 69	 1	 1.1	 0.9;
	 90	 1	 4.08	 0.42	 0	 0	 10	 1	 0	 69	 1	 1.1	 0.9;
	 91	 1	 6.78	 1.68	 0	 0	 10	 1	 0	 69	 1	 1.1	 0.9;
	 92	 1	 3.45	 0.68	 0	 0	 10	 1	 0	 69	 1	 1.1	 0.9;
	 93	 1	 6.77	 1.14	 0	 0	 10	 1	 0	 69	 1	 1.1	 0.9;
	 94	 1	 9.43	 1.64	 0	 0	 10	 1	 0	 138	 1	 1.1	 0.9;
	 95	 1	 0	 0	 0	 0	 10	 1	 0	 138	 1	 1.1	 0.9;
	 96	 1	 6	 1.53	 0	 0	 10	 1	 0	 69	 1	 1.1	 0.9;
	 97	 1	 3.99	-3.68	 0	 0	 10	 1	 0	 69	 1	 1.1	 0.9;
	 98	 1	 2.42	 0.7	 0	 0	 10	 1	 0	 69	 1	 1.1	 0.9;
	 99	 1	 0	 0	 0	 0	 10	 1	 0	 500	 1	 1.1	 0.9;
	 100	 1	 4.57	 1.17	 0	 0	 10	 1	 0	 69	 1	 1.1	 0.9;
	 101	 1	 20.95	 5.63	 0	 0	 10	 1	 0	 138	 1	 1.1	 0.9;
	 102	 1	 7.35	 1.23	 0	 0	 10	 1	 0	 69	 1	 1.1	 0.9;
	 103	 1	 4.86	 0.83	 0	 0	 10	 1	 0	 69	 1	 1.1	 0.9;
	 104	 1	 4.95	 0.67	 0	 0	 10	 1	 0	 69	 1	 1.1	 0.9;
	 105	 1	 0	 0	 0	 0	 10	 1	 0	 138	 1	 1.1	 0.9;
	 106	 1	 0	 0	 0	 0	 10	 1	 0	 138	 1	 1.1	 0.9;
	 107	 1	 9.5	 1.6	 0	 0	 10	 1	 0	 138	 1	 1.1	 0.9;
	 108	 1	 4.12	 0.86	 0	 0	 10	 1	 0	 69	 1	 1.1	 0.9;
	 109	 1	 5.87	 1.58	 0	 0	 10	 1	 0	 69	 1	 1.1	 0.9;
	 110	 1	 0	 0	 0	 0	 10	 1	 0	 138	 1	 1.1	 0.9;
	 111	 1	 4.43	 1.09	 0	 0	 10	 1	 0	 138	 1	 1.1	 0.9;
	 112	 1	 8.41	 1.24	 0	 0	 10	 1	 0	 138	 1	 1.1	 0.9;
	 113	 1	 20.16	 4.05	 0	 0	 10	 1	 0	 69	 1	 1.1	 0.9;
	 114	 1	 0	 0	 0	-38.17	 10	 1	 0	 230	 1	 1.1	 0.9;
	 115	 1	 3.78	 0.86	 0	 0	 10	 1	 0	 138	 1	 1.1	 0.9;
	 116	 1	 4.96	 1.03	 0	 0	 10	 1	 0	 69	 1	 1.1	 0.9;
	 117	 1	 17.55	 4.87	 0	 0	 10	 1	 0	 69	 1	 1.1	 0.9;
	 118	 1	 7.92	 1.79	 0	 0	 10	 1	 0	 69	 1	 1.1	 0.9;
	 119	 1	 0	 0	 0	 0	 10	 1	 0	 138	 1	 1.1	 0.9;
	 120	 1	 0	 0	 0	 0	 10	 1	 0	 138	 1	 1.1	 0.9;
	 121	 1	 47.03	 10.5	 0	 0	 10	 1	 0	 138	 1	 1.1	 0.9;
	 122	 1	 4.67	 1.34	 0	 0	 10	 1	 0	 69	 1	 1.1	 0.9;
	 123	 1	 13.23	 3.09	 0	 0	 10	 1	 0	 138	 1	 1.1	 0.9;
	 124	 1	 64.15	 19.63	 0	 0	 10	 1	 0	 138	 1	 1.1	 0.9;
	 125	 1	 0	 0	 0	 0	 10	 1	 0	 138	 1	 1.1	 0.9;
	 126	 1	 7.47	 1.92	 0	 0	 10	 1	 0	 69	 1	 1.1	 0.9;
	 127	 1	 8.04	 1.8	 0	 0	 10	 1	 0	 138	 1	 1.1	 0.9;
	 128	 1	 2.78	 0.73	 0	 0	 10	 1	 0	 69	 1	 1.1	 0.9;
	 129	 1	 23.13	 6.07	 0	 0	 10	 1	 0	 69	 1	 1.1	 0.9;
	 130	 1	 11.35	 2.43	 0	 0	 10	 1	 0	 69	 1	 1.1	 0.9;
	 131	 1	 5.02	 1.4	 0	 0	 10	 1	 0	 69	 1	 1.1	 0.9;
	 132	 1	 0	 0	 0	 0	 10	 1	 0	 138	 1	 1.1	 0.9;
	 133	 1	 0	 0	 0	 0	 10	 1	 0	 138	 1	 1.1	 0.9;
	 134	 1	 10.52	 1.67	 0	 0	 10	 1	 0	 69	 1	 1.1	 0.9;
	 135	 1	 8.77	 2.6	 0	 0	 10	 1	 0	 69	 1	 1.1	 0.9;
	 136	 1	 0	 0	 0	 0	 10	 1	 0	 138	 1	 1.1	 0.9;
	 137	 1	 12.74	 3.83	 0	 0	 10	 1	 0	 69	 1	 1.1	 0.9;
	 138	 1	 10.68	 2.08	 0	 0	 10	 1	 0	 69	 1	 1.1	 0.9;
	 139	 1	 5.81	 0.82	 0	 0	 10	 1	 0	 69	 1	 1.1	 0.9;
	 140	 1	 11.44	 3.07	 0	 0	 10	 1	 0	 69	 1	 1.1	 0.9;
	 141	 1	 52.26	 16.97	 0	 0	 10	 1	 0	 138	 1	 1.1	 0.9;
	 142	 1	 10.17	 2.79	 0	 0	 10	 1	 0	 69	 1	 1.1	 0.9;
	 143	 1	 11.14	 3.41	 0	 0	 10	 1	 0	 69	 1	 1.1	 0.9;
	 144	 1	 23.44	 5.76	 0	 0	 10	 1	 0	 69	 1	 1.1	 0.9;
	 145	 1	 3.04	 0.69	 0	 0	 10	 1	 0	 69	 1	 1.1	 0.9;
	 146	 1	 3.62	 0.44	 0	 0	 10	 1	 0	 138	 1	 1.1	 0.9;
	 147	 1	 39.02	 12.06	 0	 0	 10	 1	 0	 138	 1	 1.1	 0.9;
	 148	 1	 5.63	 1.01	 0	 0	 10	 1	 0	 138	 1	 1.1	 0.9;
	 149	 1	 0	 0	 0	 0	 10	 1	 0	 138	 1	 1.1	 0.9;
	 150	 1	 0	 0	 0	 0	 10	 1	 0	 138	 1	 1.1	 0.9;
	 151	 1	 3.62	 0.88	 0	 0	 10	 1	 0	 69	 1	 1.1	 0.9;
	 152	 1	 0	 0	 0	 0	 10	 1	 0	 138	 1	 1.1	 0.9;
	 153	 1	 5.1	 1.47	 0	 0	 10	 1	 0	 69	 1	 1.1	 0.9;
	 154	 1	 3.41	 0.8	 0	 0	 10	 1	 0	 69	 1	 1.1	 0.9;
	 155	 1	 0	 0	 0	 0	 10	 1	 0	 138	 1	 1.1	 0.9;
	 156	 1	 6.12	 0.84	 0	 0	 10	 1	 0	 69	 1	 1.1	 0.9;
	 157	 1	 5.19	 0.98	 0	 0	 10	 1	 0	 69	 1	 1.1	 0.9;
	 158	 1	 6.13	 0.79	 0	 0	 10	 1	 0	 69	 1	 1.1	 0.9;
	 159	 1	 0	 0	 0	 0	 10	 1	 0	 138	 1	 1.1	 0.9;
	 160	 1	 5.22	 1.44	 0	 0	 10	 1	 0	 69	 1	 1.1	 0.9;
	 161	 1	 4.24	 0.85	 0	 0	 10	 1	 0	 138	 1	 1.1	 0.9;
	 162	 1	 4.58	 0.52	 0	 0	 10	 1	 0	 138	 1	 1.1	 0.9;
	 163	 1	 3.45	 0.38	 0	 0	 10	 1	 0	 69	 1	 1.1	 0.9;
	 164	 1	 0	 0	 0	 0	 10	 1	 0	 138	 1	 1.1	 0.9;
	 165	 1	 0	 0	 0	 0	 10	 1	 0	 138	 1	 1.1	 0.9;
	 166	 1	 4.87	 0.98	 0	 0	 10	 1	 0	 69	 1	 1.1	 0.9;
	 167	 1	 3.23	 0.66	 0	 0	 10	 1	 0	 69	 1	 1.1	 0.9;
	 168	 1	 0	 0	 0	 0	 10	 1	 0	 138	 1	 1.1	 0.9;
	 169	 1	 0	 0	 0	 0	 10	 1	 0	 138	 1	 1.1	 0.9;
	 170	 1	 0	 0	 0	 0	 10	 1	 0	 138	 1	 1.1	 0.9;
	 171	 1	 0	 0	 0	 0	 10	 1	 0	 138	 1	 1.1	 0.9;
	 172	 1	 3.52	 0.79	 0	 0	 10	 1	 0	 69	 1	 1.1	 0.9;
	 173	 1	 6.13	 1.68	 0	 0	 10	 1	 0	 69	 1	 1.1	 0.9;
	 174	 1	 12.09	 2.46	 0	 0	 10	 1	 0	 69	 1	 1.1	 0.9;
	 175	 1	 0	 0	 0	 0	 10	 1	 0	 138	 1	 1.1	 0.9;
	 176	 1	 0	 0	 0	 0	 10	 1	 0	 138	 1	 1.1	 0.9;
	 177	 1	 0	 0	 0	 0	 10	 1	 0	 138	 1	 1.1	 0.9;
	 178	 1	 0	 0	 0	 0	 10	 1	 0	 138	 1	 1.1	 0.9;
	 179	 1	 3.68	 0.74	 0	 0	 10	 1	 0	 69	 1	 1.1	 0.9;
	 180	 1	 0	 0	 0	 0	 10	 1	 0	 138	 1	 1.1	 0.9;
	 181	 1	 0	 0	 0	 0	 10	 1	 0	 138	 1	 1.1	 0.9;
	 182	 1	 2.95	 0.7	 0	 0	 10	 1	 0	 69	 1	 1.1	 0.9;
	 183	 1	 2.41	 0.39	 0	 0	 10	 1	 0	 69	 1	 1.1	 0.9;
	 184	 1	 2.64	 0.61	 0	 0	 10	 1	 0	 69	 1	 1.1	 0.9;
	 185	 1	 0	 0	 0	 0	 10	 1	 0	 138	 1	 1.1	 0.9;
	 186	 1	 0	 0	 0	 0	 10	 1	 0	 138	 1	 1.1	 0.9;
	 187	 1	 7.9	 1.44	 0	 0	 10	 1	 0	 69	 1	 1.1	 0.9;
	 188	 1	 6.2	 1.64	 0	 0	 10	 1	 0	 138	 1	 1.1	 0.9;
	 189	 1	 2.97	 0.65	 0	 0	 10	 1	 0	 69	 1	 1.1	 0.9;
	 190	 1	 6.2	 1	 0	 0	 10	 1	 0	 69	 1	 1.1	 0.9;
	 191	 1	 6.4	 1.5	 0	 0	 10	 1	 0	 69	 1	 1.1	 0.9;
	 192	 1	 0	 0	 0	 0	 10	 1	 0	 138	 1	 1.1	 0.9;
	 193	 1	 6.25	 1.43	 0	 0	 10	 1	 0	 69	 1	 1.1	 0.9;
	 194	 1	 0	 0	 0	 0	 10	 1	 0	 138	 1	 1.1	 0.9;
	 195	 1	 5.16	 1.22	 0	 0	 10	 1	 0	 69	 1	 1.1	 0.9;
	 196	 1	 4.88	 1.26	 0	 0	 10	 1	 0	 138	 1	 1.1	 0.9;
	 197	 1	 6.52	 0.88	 0	 0	 10	 1	 0	 69	 1	 1.1	 0.9;
	 198	 1	 3.79	 0.8	 0	 0	 10	 1	 0	 69	 1	 1.1	 0.9;
	 199	 1	 0	 0	 0	 0	 10	 1	 0	 138	 1	 1.1	 0.9;
	 200	 1	 0	 0	 0	 0	 10	 1	 0	 138	 1	 1.1	 0.9;
...
];

mpc_regionR1.gen = [
%	bus         Pg          Qg          Qmax        Qmin        Vg          mBase       status      Pmax        Pmin        Pc1         Pc2         Qc1min      Qc1max      Qc2min      Qc2max      ramp_agc    ramp_10     ramp_30     ramp_q      apf         
	 1	 0	 0	 0	 0	 1	 100	 0	 50	 0	 0	 0	 0	 0	 0	 0	 0	 0	 0	 0	 50;
	 1	 120.28	 0	 39.14	-39.14	 1	 100	 1	 240.56	 0	 0	 0	 0	 0	 0	 0	 0	 0	 0	 0	 240.56;
	 1	 120.28	 0	 39.14	-39.14	 1	 100	 1	 240.56	 0	 0	 0	 0	 0	 0	 0	 0	 0	 0	 0	 240.56;
	 1	 120.28	 0	 39.14	-39.14	 1	 100	 1	 240.56	 0	 0	 0	 0	 0	 0	 0	 0	 0	 0	 0	 240.56;
	 1	 120.28	 0	 39.14	-39.14	 1	 100	 1	 240.56	 0	 0	 0	 0	 0	 0	 0	 0	 0	 0	 0	 240.56;
	 1	 120.28	 0	 39.14	-39.14	 1	 100	 1	 240.56	 0	 0	 0	 0	 0	 0	 0	 0	 0	 0	 0	 240.56;
	 1	 120.28	 0	 39.14	-39.14	 1	 100	 1	 240.56	 0	 0	 0	 0	 0	 0	 0	 0	 0	 0	 0	 240.56;
	 1	 120.28	 0	 39.14	-39.14	 1	 100	 1	 240.56	 0	 0	 0	 0	 0	 0	 0	 0	 0	 0	 0	 240.56;
	 1	 120.28	 0	 39.14	-39.14	 1	 100	 1	 240.56	 0	 0	 0	 0	 0	 0	 0	 0	 0	 0	 0	 240.56;
	 1	 120.28	 0	 39.14	-39.14	 1	 100	 1	 240.56	 0	 0	 0	 0	 0	 0	 0	 0	 0	 0	 0	 240.56;
	 1	 120.28	 0	 39.14	-39.14	 1	 100	 1	 240.56	 0	 0	 0	 0	 0	 0	 0	 0	 0	 0	 0	 240.56;
	 1	 0	 0	 0	 0	 1	 100	 0	 50	 0	 0	 0	 0	 0	 0	 0	 0	 0	 0	 0	 50;
	 1	 120.28	 0	 39.14	-39.14	 1	 100	 1	 240.56	 0	 0	 0	 0	 0	 0	 0	 0	 0	 0	 0	 240.56;
	 1	 120.28	 0	 39.14	-39.14	 1	 100	 1	 240.56	 0	 0	 0	 0	 0	 0	 0	 0	 0	 0	 0	 240.56;
	 1	 120.28	 0	 39.14	-39.14	 1	 100	 1	 240.56	 0	 0	 0	 0	 0	 0	 0	 0	 0	 0	 0	 240.56;
	 1	 120.28	 0	 39.14	-39.14	 1	 100	 1	 240.56	 0	 0	 0	 0	 0	 0	 0	 0	 0	 0	 0	 240.56;
	 1	 120.28	 0	 39.14	-39.14	 1	 100	 1	 240.56	 0	 0	 0	 0	 0	 0	 0	 0	 0	 0	 0	 240.56;
	 1	 120.28	 0	 39.14	-39.14	 1	 100	 1	 240.56	 0	 0	 0	 0	 0	 0	 0	 0	 0	 0	 0	 240.56;
	 1	 120.28	 0	 39.14	-39.14	 1	 100	 1	 240.56	 0	 0	 0	 0	 0	 0	 0	 0	 0	 0	 0	 240.56;
	 1	 120.28	 0	 39.14	-39.14	 1	 100	 1	 240.56	 0	 0	 0	 0	 0	 0	 0	 0	 0	 0	 0	 240.56;
	 1	 120.28	 0	 39.14	-39.14	 1	 100	 1	 240.56	 0	 0	 0	 0	 0	 0	 0	 0	 0	 0	 0	 240.56;
	 1	 120.28	 0	 39.14	-39.14	 1	 100	 1	 240.56	 0	 0	 0	 0	 0	 0	 0	 0	 0	 0	 0	 240.56;
	 1	 0	 0	 0	 0	 1	 100	 0	 53.5	 0	 0	 0	 0	 0	 0	 0	 0	 0	 0	 0	 53.5;
	 1	 120.28	 0	 39.14	-39.14	 1	 100	 1	 240.56	 0	 0	 0	 0	 0	 0	 0	 0	 0	 0	 0	 240.56;
	 1	 120.28	 0	 39.14	-39.14	 1	 100	 1	 240.56	 0	 0	 0	 0	 0	 0	 0	 0	 0	 0	 0	 240.56;
	 1	 120.28	 0	 39.14	-39.14	 1	 100	 1	 240.56	 0	 0	 0	 0	 0	 0	 0	 0	 0	 0	 0	 240.56;
	 1	 120.28	 0	 39.14	-39.14	 1	 100	 1	 240.56	 0	 0	 0	 0	 0	 0	 0	 0	 0	 0	 0	 240.56;
	 1	 0	 0	 0	 0	 1	 100	 0	 125	 0	 0	 0	 0	 0	 0	 0	 0	 0	 0	 0	 125;
	 1	 0	 0	 0	 0	 1	 100	 0	 125	 0	 0	 0	 0	 0	 0	 0	 0	 0	 0	 0	 125;
	 1	 0	 0	 0	 0	 1	 100	 0	 125	 0	 0	 0	 0	 0	 0	 0	 0	 0	 0	 0	 125;
	 1	 0	 0	 0	 0	 1	 100	 0	 125	 0	 0	 0	 0	 0	 0	 0	 0	 0	 0	 0	 125;
	 1	 0	 0	 0	 0	 1	 100	 0	 125	 0	 0	 0	 0	 0	 0	 0	 0	 0	 0	 0	 125;
	 1	 0	 0	 0	 0	 1	 100	 0	 125	 0	 0	 0	 0	 0	 0	 0	 0	 0	 0	 0	 125;
	 1	 0	 0	 0	 0	 1	 100	 0	 53.5	 0	 0	 0	 0	 0	 0	 0	 0	 0	 0	 0	 53.5;
	 1	 0	 0	 0	 0	 1	 100	 0	 125	 0	 0	 0	 0	 0	 0	 0	 0	 0	 0	 0	 125;
	 1	 0	 0	 0	 0	 1	 100	 0	 125	 0	 0	 0	 0	 0	 0	 0	 0	 0	 0	 0	 125;
	 1	 0	 0	 0	 0	 1	 100	 0	 125	 0	 0	 0	 0	 0	 0	 0	 0	 0	 0	 0	 125;
	 1	 0	 0	 0	 0	 1	 100	 0	 125	 0	 0	 0	 0	 0	 0	 0	 0	 0	 0	 0	 125;
	 1	 0	 0	 0	 0	 1	 100	 0	 125	 0	 0	 0	 0	 0	 0	 0	 0	 0	 0	 0	 125;
	 1	 0	 0	 0	 0	 1	 100	 0	 125	 0	 0	 0	 0	 0	 0	 0	 0	 0	 0	 0	 125;
	 1	 0	 0	 0	 0	 1	 100	 0	 125	 0	 0	 0	 0	 0	 0	 0	 0	 0	 0	 0	 125;
	 1	 0	 0	 0	 0	 1	 100	 0	 125	 0	 0	 0	 0	 0	 0	 0	 0	 0	 0	 0	 125;
	 1	 0	 0	 0	 0	 1	 100	 0	 125	 0	 0	 0	 0	 0	 0	 0	 0	 0	 0	 0	 125;
	 1	 0	 0	 0	 0	 1	 100	 0	 125	 0	 0	 0	 0	 0	 0	 0	 0	 0	 0	 0	 125;
	 1	 0	 0	 0	 0	 1	 100	 0	 53.5	 0	 0	 0	 0	 0	 0	 0	 0	 0	 0	 0	 53.5;
	 1	 0	 0	 0	 0	 1	 100	 0	 125	 0	 0	 0	 0	 0	 0	 0	 0	 0	 0	 0	 125;
	 1	 0	 0	 0	 0	 1	 100	 0	 125	 0	 0	 0	 0	 0	 0	 0	 0	 0	 0	 0	 125;
	 1	 300	 0	 121.8	-121.8	 1	 100	 1	 600	 0	 0	 0	 0	 0	 0	 0	 0	 0	 0	 0	 600;
	 1	 300	 0	 121.8	-121.8	 1	 100	 1	 600	 0	 0	 0	 0	 0	 0	 0	 0	 0	 0	 0	 600;
	 1	 300	 0	 121.8	-121.8	 1	 100	 1	 600	 0	 0	 0	 0	 0	 0	 0	 0	 0	 0	 0	 600;
	 1	 402.5	 0	 163.5	-163.5	 1	 100	 1	 805	 0	 0	 0	 0	 0	 0	 0	 0	 0	 0	 0	 805;
	 1	 402.5	 0	 163.5	-163.5	 1	 100	 1	 805	 0	 0	 0	 0	 0	 0	 0	 0	 0	 0	 0	 805;
	 1	 402.5	 0	 163.5	-163.5	 1	 100	 1	 805	 0	 0	 0	 0	 0	 0	 0	 0	 0	 0	 0	 805;
	 1	 0	 0	 0	 0	 1	 100	 0	 53.5	 0	 0	 0	 0	 0	 0	 0	 0	 0	 0	 0	 53.5;
	 1	 120.28	 0	 39.14	-39.14	 1	 100	 1	 240.56	 0	 0	 0	 0	 0	 0	 0	 0	 0	 0	 0	 240.56;
	 1	 120.28	 0	 39.14	-39.14	 1	 100	 1	 240.56	 0	 0	 0	 0	 0	 0	 0	 0	 0	 0	 0	 240.56;
	 1	 120.28	 0	 39.14	-39.14	 1	 100	 1	 240.56	 0	 0	 0	 0	 0	 0	 0	 0	 0	 0	 0	 240.56;
	 2	 660	 0	 273.5	-273.5	 1	 100	 1	 1200	 120	 0	 0	 0	 0	 0	 0	 0	 0	 0	 0	 0;
	 3	 44.65	 8.65	 37.5	-20.2	 1	 100	 1	 60.5	 28.8	 0	 0	 0	 0	 0	 0	 0	 0	 0	 0	 60.5;
	 3	 44.65	 8.65	 37.5	-20.2	 1	 100	 1	 60.5	 28.8	 0	 0	 0	 0	 0	 0	 0	 0	 0	 0	 60.5;
	 3	 44.65	 8.65	 37.5	-20.2	 1	 100	 1	 60.5	 28.8	 0	 0	 0	 0	 0	 0	 0	 0	 0	 0	 60.5;
	 3	 44.65	 8.65	 37.5	-20.2	 1	 100	 1	 60.5	 28.8	 0	 0	 0	 0	 0	 0	 0	 0	 0	 0	 60.5;
	 3	 489.95	 0	 264.9	-264.9	 1	 100	 1	 729.9	 250	 0	 0	 0	 0	 0	 0	 0	 0	 0	 0	 729.9;
	 3	 482.45	 0	 264.9	-264.9	 1	 100	 1	 729.9	 235	 0	 0	 0	 0	 0	 0	 0	 0	 0	 0	 729.9;
	 3	 61.2	 11.45	 49.6	-26.7	 1	 100	 1	 80	 42.4	 0	 0	 0	 0	 0	 0	 0	 0	 0	 0	 80;
	 4	 165	 32.9	 142.5	-76.7	 1	 100	 1	 230	 100	 0	 0	 0	 0	 0	 0	 0	 0	 0	 0	 230;
	 4	 167	 33.5	 145	-78	 1	 100	 1	 234	 100	 0	 0	 0	 0	 0	 0	 0	 0	 0	 0	 234;
	 4	 167	 33.5	 145	-78	 1	 100	 1	 234	 100	 0	 0	 0	 0	 0	 0	 0	 0	 0	 0	 234;
	 5	 143.5	 119	 119	 119	 1	 100	 1	 192	 95	 0	 0	 0	 0	 0	 0	 0	 0	 0	 0	 192;
	 5	 95.65	 41.5	 41.5	 41.5	 1	 100	 1	 126.3	 65	 0	 0	 0	 0	 0	 0	 0	 0	 0	 0	 126.3;
	 6	 137.5	 25.1	 108.5	-58.3	 1	 100	 1	 175	 100	 0	 0	 0	 0	 0	 0	 0	 0	 0	 0	 175;
	 6	 137.5	 25.1	 108.5	-58.3	 1	 100	 1	 175	 100	 0	 0	 0	 0	 0	 0	 0	 0	 0	 0	 175;
	 6	 200	 42.95	 185.9	-100	 1	 100	 1	 300	 100	 0	 0	 0	 0	 0	 0	 0	 0	 0	 0	 300;
	 7	 74.5	 0	 37.5	-37.5	 1	 100	 1	 114	 35	 0	 0	 0	 0	 0	 0	 0	 0	 0	 0	 114;
	 7	 80.2	 0	 41.2	-41.2	 1	 100	 1	 125.4	 35	 0	 0	 0	 0	 0	 0	 0	 0	 0	 0	 125.4;
	 7	 80.2	 0	 41.2	-41.2	 1	 100	 1	 125.4	 35	 0	 0	 0	 0	 0	 0	 0	 0	 0	 0	 125.4;
	 7	 74.5	 0	 37.5	-37.5	 1	 100	 1	 114	 35	 0	 0	 0	 0	 0	 0	 0	 0	 0	 0	 114;
	 7	 74.5	 0	 37.5	-37.5	 1	 100	 1	 114	 35	 0	 0	 0	 0	 0	 0	 0	 0	 0	 0	 114;
	 7	 74.5	 0	 37.5	-37.5	 1	 100	 1	 114	 35	 0	 0	 0	 0	 0	 0	 0	 0	 0	 0	 114;
	 7	 74.5	 0	 37.5	-37.5	 1	 100	 1	 114	 35	 0	 0	 0	 0	 0	 0	 0	 0	 0	 0	 114;
	 7	 74.5	 0	 37.5	-37.5	 1	 100	 1	 114	 35	 0	 0	 0	 0	 0	 0	 0	 0	 0	 0	 114;
	 7	 74.5	 0	 37.5	-37.5	 1	 100	 1	 114	 35	 0	 0	 0	 0	 0	 0	 0	 0	 0	 0	 114;
	 7	 80.2	 0	 41.2	-41.2	 1	 100	 1	 125.4	 35	 0	 0	 0	 0	 0	 0	 0	 0	 0	 0	 125.4;
	 7	 80.2	 0	 41.2	-41.2	 1	 100	 1	 125.4	 35	 0	 0	 0	 0	 0	 0	 0	 0	 0	 0	 125.4;
	 8	 56.25	 8.5	 54.5	-37.5	 1	 100	 1	 112.5	 0	 0	 0	 0	 0	 0	 0	 0	 0	 0	 0	 112.5;
	 8	 56.25	 8.5	 54.5	-37.5	 1	 100	 1	 112.5	 0	 0	 0	 0	 0	 0	 0	 0	 0	 0	 0	 112.5;
	 8	 56.25	 8.5	 54.5	-37.5	 1	 100	 1	 112.5	 0	 0	 0	 0	 0	 0	 0	 0	 0	 0	 0	 112.5;
	 8	 56.25	 8.5	 54.5	-37.5	 1	 100	 1	 112.5	 0	 0	 0	 0	 0	 0	 0	 0	 0	 0	 0	 112.5;
	 9	 80.56	 44.4	 44.4	 44.4	 1	 100	 1	 80.56	 80.56	 0	 0	 0	 0	 0	 0	 0	 0	 0	 0	 100.7;
	 10	 65.45	 46.4	 46.4	 46.4	 1	 100	 1	 95.9	 35	 0	 0	 0	 0	 0	 0	 0	 0	 0	 0	 95.9;
	 10	 65.45	 46.4	 46.4	 46.4	 1	 100	 1	 95.9	 35	 0	 0	 0	 0	 0	 0	 0	 0	 0	 0	 95.9;
	 10	 61.85	 45.4	 45.4	 45.4	 1	 100	 1	 93.7	 30	 0	 0	 0	 0	 0	 0	 0	 0	 0	 0	 93.7;
	 11	 72.5	 0	 31.2	-31.2	 1	 100	 1	 95	 50	 0	 0	 0	 0	 0	 0	 0	 0	 0	 0	 95;
	 11	 73.9	 0	 32.1	-32.1	 1	 100	 1	 97.8	 50	 0	 0	 0	 0	 0	 0	 0	 0	 0	 0	 97.8;
	 11	 72.5	 0	 31.2	-31.2	 1	 100	 1	 95	 50	 0	 0	 0	 0	 0	 0	 0	 0	 0	 0	 95;
	 11	 72.5	 0	 31.2	-31.2	 1	 100	 1	 95	 50	 0	 0	 0	 0	 0	 0	 0	 0	 0	 0	 95;
	 11	 72.5	 0	 31.2	-31.2	 1	 100	 1	 95	 50	 0	 0	 0	 0	 0	 0	 0	 0	 0	 0	 95;
	 11	 72.5	 0	 31.2	-31.2	 1	 100	 1	 95	 50	 0	 0	 0	 0	 0	 0	 0	 0	 0	 0	 95;
	 11	 72.5	 0	 31.2	-31.2	 1	 100	 1	 95	 50	 0	 0	 0	 0	 0	 0	 0	 0	 0	 0	 95;
	 11	 72.5	 0	 31.2	-31.2	 1	 100	 1	 95	 50	 0	 0	 0	 0	 0	 0	 0	 0	 0	 0	 95;
	 11	 72.5	 0	 31.2	-31.2	 1	 100	 1	 95	 50	 0	 0	 0	 0	 0	 0	 0	 0	 0	 0	 95;
	 11	 73.9	 0	 32.1	-32.1	 1	 100	 1	 97.8	 50	 0	 0	 0	 0	 0	 0	 0	 0	 0	 0	 97.8;
	 13	 72	 0	 39.7	-39.7	 1	 100	 1	 72	 72	 0	 0	 0	 0	 0	 0	 0	 0	 0	 0	 90;
	 14	 46.95	 6.75	 43.1	-29.6	 1	 100	 1	 88.9	 5	 0	 0	 0	 0	 0	 0	 0	 0	 0	 0	 88.9;
	 14	 46.95	 6.75	 43.1	-29.6	 1	 100	 1	 88.9	 5	 0	 0	 0	 0	 0	 0	 0	 0	 0	 0	 88.9;
	 15	 95	 0	 31.2	-31.2	 1	 100	 1	 95	 95	 0	 0	 0	 0	 0	 0	 0	 0	 0	 0	 95;
	 15	 95	 0	 31.2	-31.2	 1	 100	 1	 95	 95	 0	 0	 0	 0	 0	 0	 0	 0	 0	 0	 95;
	 15	 95	 0	 31.2	-31.2	 1	 100	 1	 95	 95	 0	 0	 0	 0	 0	 0	 0	 0	 0	 0	 95;
	 15	 67.9	 0	 29	-29	 1	 100	 1	 88.2	 47.6	 0	 0	 0	 0	 0	 0	 0	 0	 0	 0	 88.2;
	 15	 67.9	 0	 29	-29	 1	 100	 1	 88.2	 47.6	 0	 0	 0	 0	 0	 0	 0	 0	 0	 0	 88.2;
	 15	 67.9	 0	 29	-29	 1	 100	 1	 88.2	 47.6	 0	 0	 0	 0	 0	 0	 0	 0	 0	 0	 88.2;
	 15	 67.9	 0	 29	-29	 1	 100	 1	 88.2	 47.6	 0	 0	 0	 0	 0	 0	 0	 0	 0	 0	 88.2;
	 15	 67.9	 0	 29	-29	 1	 100	 1	 88.2	 47.6	 0	 0	 0	 0	 0	 0	 0	 0	 0	 0	 88.2;
	 15	 67.9	 0	 29	-29	 1	 100	 1	 88.2	 47.6	 0	 0	 0	 0	 0	 0	 0	 0	 0	 0	 88.2;
	 15	 67.9	 0	 29	-29	 1	 100	 1	 88.2	 47.6	 0	 0	 0	 0	 0	 0	 0	 0	 0	 0	 88.2;
	 15	 67.9	 0	 29	-29	 1	 100	 1	 88.2	 47.6	 0	 0	 0	 0	 0	 0	 0	 0	 0	 0	 88.2;
	 15	 95	 0	 31.2	-31.2	 1	 100	 1	 95	 95	 0	 0	 0	 0	 0	 0	 0	 0	 0	 0	 95;
	 15	 67.9	 0	 29	-29	 1	 100	 1	 88.2	 47.6	 0	 0	 0	 0	 0	 0	 0	 0	 0	 0	 88.2;
	 15	 67.9	 0	 29	-29	 1	 100	 1	 88.2	 47.6	 0	 0	 0	 0	 0	 0	 0	 0	 0	 0	 88.2;
	 15	 67.9	 0	 29	-29	 1	 100	 1	 88.2	 47.6	 0	 0	 0	 0	 0	 0	 0	 0	 0	 0	 88.2;
	 15	 67.9	 0	 29	-29	 1	 100	 1	 88.2	 47.6	 0	 0	 0	 0	 0	 0	 0	 0	 0	 0	 88.2;
	 15	 67.9	 0	 29	-29	 1	 100	 1	 88.2	 47.6	 0	 0	 0	 0	 0	 0	 0	 0	 0	 0	 88.2;
	 15	 67.9	 0	 29	-29	 1	 100	 1	 88.2	 47.6	 0	 0	 0	 0	 0	 0	 0	 0	 0	 0	 88.2;
	 15	 67.9	 0	 29	-29	 1	 100	 1	 88.2	 47.6	 0	 0	 0	 0	 0	 0	 0	 0	 0	 0	 88.2;
	 15	 67.9	 0	 29	-29	 1	 100	 1	 88.2	 47.6	 0	 0	 0	 0	 0	 0	 0	 0	 0	 0	 88.2;
	 15	 95	 0	 31.2	-31.2	 1	 100	 1	 95	 95	 0	 0	 0	 0	 0	 0	 0	 0	 0	 0	 95;
	 15	 95	 0	 31.2	-31.2	 1	 100	 1	 95	 95	 0	 0	 0	 0	 0	 0	 0	 0	 0	 0	 95;
	 15	 95	 0	 31.2	-31.2	 1	 100	 1	 95	 95	 0	 0	 0	 0	 0	 0	 0	 0	 0	 0	 95;
	 15	 95	 0	 31.2	-31.2	 1	 100	 1	 95	 95	 0	 0	 0	 0	 0	 0	 0	 0	 0	 0	 95;
	 15	 95	 0	 31.2	-31.2	 1	 100	 1	 95	 95	 0	 0	 0	 0	 0	 0	 0	 0	 0	 0	 95;
	 15	 95	 0	 31.2	-31.2	 1	 100	 1	 95	 95	 0	 0	 0	 0	 0	 0	 0	 0	 0	 0	 95;
	 15	 95	 0	 31.2	-31.2	 1	 100	 1	 95	 95	 0	 0	 0	 0	 0	 0	 0	 0	 0	 0	 95;
	 16	 28.85	 2.85	 18.3	-12.6	 1	 100	 1	 37.7	 20	 0	 0	 0	 0	 0	 0	 0	 0	 0	 0	 37.7;
	 16	 68.9	 6.6	 42.5	-29.3	 1	 100	 1	 87.8	 50	 0	 0	 0	 0	 0	 0	 0	 0	 0	 0	 87.8;
	 17	 44.8	 6.4	 41	-28.2	 1	 100	 1	 84.6	 5	 0	 0	 0	 0	 0	 0	 0	 0	 0	 0	 84.6;
	 17	 44.8	 6.4	 41	-28.2	 1	 100	 1	 84.6	 5	 0	 0	 0	 0	 0	 0	 0	 0	 0	 0	 84.6;
	 18	 41.4	 0	 0	 0	 1	 100	 1	 80.8	 2	 0	 0	 0	 0	 0	 0	 0	 0	 0	 0	 80.8;
	 19	 66.2	 25.4	 25.4	 25.4	 1	 100	 1	 77.4	 55	 0	 0	 0	 0	 0	 0	 0	 0	 0	 0	 77.4;
	 19	 66.2	 25.4	 25.4	 25.4	 1	 100	 1	 77.4	 55	 0	 0	 0	 0	 0	 0	 0	 0	 0	 0	 77.4;
	 19	 66.2	 25.4	 25.4	 25.4	 1	 100	 1	 77.4	 55	 0	 0	 0	 0	 0	 0	 0	 0	 0	 0	 77.4;
	 19	 66.2	 25.4	 25.4	 25.4	 1	 100	 1	 77.4	 55	 0	 0	 0	 0	 0	 0	 0	 0	 0	 0	 77.4;
	 19	 66.2	 25.4	 25.4	 25.4	 1	 100	 1	 77.4	 55	 0	 0	 0	 0	 0	 0	 0	 0	 0	 0	 77.4;
	 19	 66.2	 25.4	 25.4	 25.4	 1	 100	 1	 77.4	 55	 0	 0	 0	 0	 0	 0	 0	 0	 0	 0	 77.4;
	 19	 66.2	 25.4	 25.4	 25.4	 1	 100	 1	 77.4	 55	 0	 0	 0	 0	 0	 0	 0	 0	 0	 0	 77.4;
	 19	 66.2	 25.4	 25.4	 25.4	 1	 100	 1	 77.4	 55	 0	 0	 0	 0	 0	 0	 0	 0	 0	 0	 77.4;
	 19	 66.2	 25.4	 25.4	 25.4	 1	 100	 1	 77.4	 55	 0	 0	 0	 0	 0	 0	 0	 0	 0	 0	 77.4;
	 19	 66.2	 25.4	 25.4	 25.4	 1	 100	 1	 77.4	 55	 0	 0	 0	 0	 0	 0	 0	 0	 0	 0	 77.4;
	 20	 24	 0	 0	 0	 1	 100	 1	 40	 8	 0	 0	 0	 0	 0	 0	 0	 0	 0	 0	 40;
	 20	 7.6	 0	 0	 0	 1	 100	 1	 12.8	 2.4	 0	 0	 0	 0	 0	 0	 0	 0	 0	 0	 12.8;
	 20	 7.6	 0	 0	 0	 1	 100	 1	 12.8	 2.4	 0	 0	 0	 0	 0	 0	 0	 0	 0	 0	 12.8;
	 20	 7.6	 0	 0	 0	 1	 100	 1	 12.8	 2.4	 0	 0	 0	 0	 0	 0	 0	 0	 0	 0	 12.8;
	 20	 7.6	 0	 0	 0	 1	 100	 1	 12.8	 2.4	 0	 0	 0	 0	 0	 0	 0	 0	 0	 0	 12.8;
	 20	 7.6	 0	 0	 0	 1	 100	 1	 12.8	 2.4	 0	 0	 0	 0	 0	 0	 0	 0	 0	 0	 12.8;
	 21	 39.5	 0	 0	 0	 1	 100	 1	 64	 15	 0	 0	 0	 0	 0	 0	 0	 0	 0	 0	 64;
	 22	 39.45	 28.5	 28.5	 28.5	 1	 100	 1	 58.9	 20	 0	 0	 0	 0	 0	 0	 0	 0	 0	 0	 58.9;
	 22	 39.45	 28.5	 28.5	 28.5	 1	 100	 1	 58.9	 20	 0	 0	 0	 0	 0	 0	 0	 0	 0	 0	 58.9;
	 22	 84.55	 62.5	 62.5	 62.5	 1	 100	 1	 129.1	 40	 0	 0	 0	 0	 0	 0	 0	 0	 0	 0	 129.1;
	 22	 84.55	 62.5	 62.5	 62.5	 1	 100	 1	 129.1	 40	 0	 0	 0	 0	 0	 0	 0	 0	 0	 0	 129.1;
	 24	 30	 15.1	 15.1	 15.1	 1	 100	 1	 46	 14	 0	 0	 0	 0	 0	 0	 0	 0	 0	 0	 46;
	 24	 30	 15.1	 15.1	 15.1	 1	 100	 1	 46	 14	 0	 0	 0	 0	 0	 0	 0	 0	 0	 0	 46;
	 25	 35.2	 0	 17.4	-17.4	 1	 100	 1	 35.2	 35.2	 0	 0	 0	 0	 0	 0	 0	 0	 0	 0	 44;
	 25	 182.88	 17.25	 110.7	-76.2	 1	 100	 1	 182.88	 182.88	 0	 0	 0	 0	 0	 0	 0	 0	 0	 0	 228.6;
	 26	 26.46	 23.6	 23.6	 23.6	 1	 100	 1	 42	 10.92	 0	 0	 0	 0	 0	 0	 0	 0	 0	 0	 42;
	 27	 30.7	 3	 19.1	-13.1	 1	 100	 1	 39.4	 22	 0	 0	 0	 0	 0	 0	 0	 0	 0	 0	 39.4;
	 27	 30.2	 3	 19.1	-13.1	 1	 100	 1	 39.4	 21	 0	 0	 0	 0	 0	 0	 0	 0	 0	 0	 39.4;
	 27	 30.2	 3	 19.1	-13.1	 1	 100	 1	 39.4	 21	 0	 0	 0	 0	 0	 0	 0	 0	 0	 0	 39.4;
	 27	 44.1	 4.4	 28.2	-19.4	 1	 100	 1	 58.2	 30	 0	 0	 0	 0	 0	 0	 0	 0	 0	 0	 58.2;
	 30	 26.3	 6.15	 22.2	-9.9	 1	 100	 1	 29.6	 23	 0	 0	 0	 0	 0	 0	 0	 0	 0	 0	 29.6;
	 30	 26.3	 6.15	 22.2	-9.9	 1	 100	 1	 29.6	 23	 0	 0	 0	 0	 0	 0	 0	 0	 0	 0	 29.6;
	 31	 20.5	 17.4	 17.4	 17.4	 1	 100	 1	 28	 13	 0	 0	 0	 0	 0	 0	 0	 0	 0	 0	 28;
	 32	 17.5	 0	 0	 0	 1	 100	 1	 27	 8	 0	 0	 0	 0	 0	 0	 0	 0	 0	 0	 27;
	 32	 17.5	 0	 0	 0	 1	 100	 1	 27	 8	 0	 0	 0	 0	 0	 0	 0	 0	 0	 0	 27;
	 32	 17.5	 0	 0	 0	 1	 100	 1	 27	 8	 0	 0	 0	 0	 0	 0	 0	 0	 0	 0	 27;
	 33	 41.8	 22.6	 22.6	 22.6	 1	 100	 1	 46.6	 37	 0	 0	 0	 0	 0	 0	 0	 0	 0	 0	 46.6;
	 33	 41.8	 22.6	 22.6	 22.6	 1	 100	 1	 46.6	 37	 0	 0	 0	 0	 0	 0	 0	 0	 0	 0	 46.6;
	 33	 41.8	 22.6	 22.6	 22.6	 1	 100	 1	 46.6	 37	 0	 0	 0	 0	 0	 0	 0	 0	 0	 0	 46.6;
	 33	 17	 13.1	 13.1	 13.1	 1	 100	 1	 27	 7	 0	 0	 0	 0	 0	 0	 0	 0	 0	 0	 27;
	 34	 14.9	 8.8	 8.8	 8.8	 1	 100	 1	 26.8	 3	 0	 0	 0	 0	 0	 0	 0	 0	 0	 0	 26.8;
	 35	 14.5	 0	 0	 0	 1	 100	 1	 25	 4	 0	 0	 0	 0	 0	 0	 0	 0	 0	 0	 25;
	 35	 14.5	 0	 0	 0	 1	 100	 1	 25	 4	 0	 0	 0	 0	 0	 0	 0	 0	 0	 0	 25;
	 37	 6.05	 0	 0	 0	 1	 100	 1	 12	 0.1	 0	 0	 0	 0	 0	 0	 0	 0	 0	 0	 12;
	 37	 6.05	 0	 0	 0	 1	 100	 1	 12	 0.1	 0	 0	 0	 0	 0	 0	 0	 0	 0	 0	 12;
	 38	 3.015	 3.08	 3.08	 3.08	 1	 100	 1	 5.7	 0.33	 0	 0	 0	 0	 0	 0	 0	 0	 0	 0	 5.7;
	 38	 3.015	 3.08	 3.08	 3.08	 1	 100	 1	 5.7	 0.33	 0	 0	 0	 0	 0	 0	 0	 0	 0	 0	 5.7;
	 38	 3.015	 3.08	 3.08	 3.08	 1	 100	 1	 5.7	 0.33	 0	 0	 0	 0	 0	 0	 0	 0	 0	 0	 5.7;
	 38	 3.015	 3.08	 3.08	 3.08	 1	 100	 1	 5.7	 0.33	 0	 0	 0	 0	 0	 0	 0	 0	 0	 0	 5.7;
	 39	 30.65	 0	 16.9	-16.9	 1	 100	 1	 51.3	 10	 0	 0	 0	 0	 0	 0	 0	 0	 0	 0	 51.3;
	 39	 15.35	 1.55	 10	-6.9	 1	 100	 1	 20.7	 10	 0	 0	 0	 0	 0	 0	 0	 0	 0	 0	 20.7;
	 39	 15.35	 1.55	 10	-6.9	 1	 100	 1	 20.7	 10	 0	 0	 0	 0	 0	 0	 0	 0	 0	 0	 20.7;
	 39	 15.35	 1.55	 10	-6.9	 1	 100	 1	 20.7	 10	 0	 0	 0	 0	 0	 0	 0	 0	 0	 0	 20.7;
	 39	 16.25	 1.7	 10.9	-7.5	 1	 100	 1	 22.5	 10	 0	 0	 0	 0	 0	 0	 0	 0	 0	 0	 22.5;
	 39	 16.25	 1.7	 10.9	-7.5	 1	 100	 1	 22.5	 10	 0	 0	 0	 0	 0	 0	 0	 0	 0	 0	 22.5;
	 39	 16.25	 1.7	 10.9	-7.5	 1	 100	 1	 22.5	 10	 0	 0	 0	 0	 0	 0	 0	 0	 0	 0	 22.5;
	 39	 16.25	 1.7	 10.9	-7.5	 1	 100	 1	 22.5	 10	 0	 0	 0	 0	 0	 0	 0	 0	 0	 0	 22.5;
	 39	 16.25	 1.7	 10.9	-7.5	 1	 100	 1	 22.5	 10	 0	 0	 0	 0	 0	 0	 0	 0	 0	 0	 22.5;
	 39	 16.25	 1.7	 10.9	-7.5	 1	 100	 1	 22.5	 10	 0	 0	 0	 0	 0	 0	 0	 0	 0	 0	 22.5;
	 39	 30.65	 0	 16.9	-16.9	 1	 100	 1	 51.3	 10	 0	 0	 0	 0	 0	 0	 0	 0	 0	 0	 51.3;
	 39	 30.65	 0	 16.9	-16.9	 1	 100	 1	 51.3	 10	 0	 0	 0	 0	 0	 0	 0	 0	 0	 0	 51.3;
	 39	 30.65	 0	 16.9	-16.9	 1	 100	 1	 51.3	 10	 0	 0	 0	 0	 0	 0	 0	 0	 0	 0	 51.3;
	 39	 30.65	 0	 16.9	-16.9	 1	 100	 1	 51.3	 10	 0	 0	 0	 0	 0	 0	 0	 0	 0	 0	 51.3;
...
];

mpc_regionR1.branch = [
%	fbus        tbus        r           x           b           rateA       rateB       rateC       ratio       angle       status      angmin      angmax      
	 1	 290	 0.002293	 0.040314	 4.86121	 3180	 3339	 3498	 0	 0	 1	-30	 30;
	 1	 290	 0.002293	 0.040314	 4.86121	 3180	 3339	 3498	 0	 0	 1	-30	 30;
	 1	 584	 0.002436	 0.044593	 5.20757	 3180	 3339	 3498	 0	 0	 1	-30	 30;
	 1	 649	 0.000157	 0.004371	 0.42574	 4112	 4317.6	 4523.2	 0	 0	 1	-30	 30;
	 1	 1164	 0.000205	 0.015367	 0	 950	 950	 950	 1	 0	 1	-30	 30;
	 1	 1164	 0.000205	 0.015367	 0	 950	 950	 950	 1	 0	 1	-30	 30;
	 1165	 1	 0.000384	 0.028831	 0	 600	 600	 600	 1	 0	 1	-30	 30;
	 1165	 1	 0.000384	 0.028831	 0	 600	 600	 600	 1	 0	 1	-30	 30;
	 2	 41	 0.001571	 0.018186	 0.15966	 736	 772.8	 809.6	 0	 0	 1	-30	 30;
	 2	 1166	 0.000242	 0.01818	 0	 550	 550	 550	 1	 0	 1	-30	 30;
	 2	 1166	 0.000242	 0.01818	 0	 550	 550	 550	 1	 0	 1	-30	 30;
	 2	 1565	 0.002407	 0.026314	 0.25922	 736	 772.8	 809.6	 0	 0	 1	-30	 30;
	 3	 810	 0.000564	 0.007036	 0.48269	 1725	 1811.25	 1897.5	 0	 0	 1	-30	 30;
	 3	 1169	 0.000106	 0.008461	 0	 1300	 1300	 1300	 1	 0	 1	-30	 30;
	 3	 1169	 0.000106	 0.008461	 0	 1300	 1300	 1300	 1	 0	 1	-30	 30;
	 1170	 3	 0.000309	 0.021623	 0	 800	 800	 800	 1	 0	 1	-30	 30;
	 1170	 3	 0.000309	 0.021623	 0	 800	 800	 800	 1	 0	 1	-30	 30;
	 4	 639	 0.000236	 0.002914	 0.04674	 1190	 1249.5	 1309	 0	 0	 1	-30	 30;
	 4	 1171	 0.000438	 0.032886	 0	 450	 450	 450	 1	 0	 1	-30	 30;
	 4	 1171	 0.000438	 0.032886	 0	 450	 450	 450	 1	 0	 1	-30	 30;
	 5	 646	 0.006464	 0.043143	 0.08145	 366	 384.3	 402.6	 0	 0	 1	-30	 30;
	 5	 814	 0.000329	 0.002121	 0.00423	 366	 384.3	 402.6	 0	 0	 1	-30	 30;
	 5	 1173	 0.000699	 0.036327	 0	 300	 300	 300	 1	 0	 1	-30	 30;
	 5	 1173	 0.000699	 0.036327	 0	 300	 300	 300	 1	 0	 1	-30	 30;
	 6	 132	 0.000307	 0.003679	 0.27601	 244	 244	 244	 0	 0	 1	-30	 30;
	 6	 675	 0.000343	 0.004386	 0.28954	 244	 244	 244	 0	 0	 1	-30	 30;
	 6	 1174	 1e-06	 1e-05	 0	 900	 1125	 1350	 0	 0	 1	-30	 30;
	 6	 1174	 1e-06	 1e-05	 0	 900	 1125	 1350	 0	 0	 1	-30	 30;
	 7	 679	 0.000743	 0.019571	 2.123	 4112	 4317.6	 4523.2	 0	 0	 1	-30	 30;
	 7	 1176	 8.1e-05	 0.00647	 0	 1700	 1700	 1700	 1	 0	 1	-30	 30;
	 7	 1176	 8.1e-05	 0.00647	 0	 1700	 1700	 1700	 1	 0	 1	-30	 30;
	 8	 12	 2.1e-05	 0.000657	 0.06404	 4112	 4317.6	 4523.2	 0	 0	 1	-30	 30;
	 8	 19	 0.000579	 0.015871	 1.56329	 4112	 4317.6	 4523.2	 0	 0	 1	-30	 30;
	 9	 570	 0.033714	 0.187757	 0.05737	 205	 215.25	 225.5	 0	 0	 1	-30	 30;
	 9	 625	 0.011214	 0.085986	 0.02306	 238	 249.9	 261.8	 0	 0	 1	-30	 30;
	 9	 627	 0.0165	 0.066079	 0.01666	 159	 166.95	 174.9	 0	 0	 1	-30	 30;
	 9	 631	 0.014936	 0.049843	 0.01264	 142	 149.1	 156.2	 0	 0	 1	-30	 30;
	 9	 1179	 0.003471	 0.12495	 0	 100	 100	 100	 1	 0	 1	-30	 30;
	 9	 1179	 0.003471	 0.12495	 0	 100	 100	 100	 1	 0	 1	-30	 30;
	 9	 1216	 0.0189	 0.095036	 0.02476	 185	 194.25	 203.5	 0	 0	 1	-30	 30;
	 9	 1571	 0.021771	 0.125286	 0.03556	 205	 215.25	 225.5	 0	 0	 1	-30	 30;
	 10	 874	 0.006064	 0.042543	 0.07253	 366	 384.3	 402.6	 0	 0	 1	-30	 30;
	 10	 1112	 0.000479	 0.003107	 0.00619	 366	 384.3	 402.6	 0	 0	 1	-30	 30;
	 10	 1180	 0.001863	 0.072643	 0	 150	 150	 150	 1	 0	 1	-30	 30;
	 10	 1180	 0.001863	 0.072643	 0	 150	 150	 150	 1	 0	 1	-30	 30;
	 11	 99	 0.001071	 0.020007	 1.64636	 2720	 2856	 2992	 0	 0	 1	-30	 30;
	 11	 1140	 9.3e-05	 0.002436	 0.23701	 4112	 4317.6	 4523.2	 0	 0	 1	-30	 30;
	 11	 1181	 0.000174	 0.013904	 0	 1050	 1050	 1050	 1	 0	 1	-30	 30;
	 11	 1181	 0.000174	 0.013904	 0	 1050	 1050	 1050	 1	 0	 1	-30	 30;
	 12	 1087	 0.000757	 0.012129	 1.41636	 3180	 3339	 3498	 0	 0	 1	-30	 30;
	 12	 1184	 0.000137	 0.010999	 0	 1000	 1000	 1000	 1	 0	 1	-30	 30;
	 12	 1184	 0.000137	 0.010999	 0	 1000	 1000	 1000	 1	 0	 1	-30	 30;
	 13	 25	 0.003593	 0.0235	 0.00598	 219	 229.95	 240.9	 0	 0	 1	-30	 30;
	 13	 627	 0.022986	 0.059107	 0.01464	 118	 123.9	 129.8	 0	 0	 1	-30	 30;
	 13	 1185	 0.003471	 0.12495	 0	 100	 100	 100	 1	 0	 1	-30	 30;
	 13	 1185	 0.003471	 0.12495	 0	 100	 100	 100	 1	 0	 1	-30	 30;
	 13	 1554	 0.011107	 0.096307	 0.03462	 284	 298.2	 312.4	 0	 0	 1	-30	 30;
	 14	 751	 0.000586	 0.002571	 0.00089	 185	 194.25	 203.5	 0	 0	 1	-30	 30;
	 14	 752	 0.000779	 0.004979	 0.00168	 230	 241.5	 253	 0	 0	 1	-30	 30;
	 15	 19	 0.000136	 0.002471	 0.20044	 2720	 2856	 2992	 0	 0	 1	-30	 30;
	 15	 99	 0.000271	 0.003238	 0.24291	 1725	 1811.25	 1897.5	 0	 0	 1	-30	 30;
	 15	 1186	 8.3e-05	 0.006666	 0	 1650	 1650	 1650	 1	 0	 1	-30	 30;
	 15	 1186	 8.3e-05	 0.006666	 0	 1650	 1650	 1650	 1	 0	 1	-30	 30;
	 16	 1105	 0.003743	 0.014971	 0.00377	 159	 166.95	 174.9	 0	 0	 1	-30	 30;
	 16	 1108	 0.008986	 0.029307	 0.00778	 142	 149.1	 156.2	 0	 0	 1	-30	 30;
	 17	 851	 0.016736	 0.052314	 0.01516	 142	 149.1	 156.2	 0	 0	 1	-30	 30;
	 17	 1119	 0.006021	 0.016886	 0.00434	 128	 134.4	 140.8	 0	 0	 1	-30	 30;
	 1180	 17	 2.9e-05	 0.000107	 3e-05	 159	 166.95	 174.9	 0	 0	 1	-30	 30;
	 17	 1544	 0.004607	 0.027864	 0.00711	 205	 215.25	 225.5	 0	 0	 1	-30	 30;
	 17	 1549	 0.002171	 0.009021	 0.00211	 159	 166.95	 174.9	 0	 0	 1	-30	 30;
	 18	 865	 0.005971	 0.043636	 0.01122	 230	 241.5	 253	 0	 0	 1	-30	 30;
	 18	 870	 0.01205	 0.092386	 0.02477	 238	 249.9	 261.8	 0	 0	 1	-30	 30;
	 18	 1197	 0.014671	 0.101907	 0.02913	 230	 241.5	 253	 0	 0	 1	-30	 30;
	 19	 1187	 0.000101	 0.00811	 0	 1800	 1800	 1800	 1	 0	 1	-30	 30;
	 19	 1187	 0.000101	 0.00811	 0	 1800	 1800	 1800	 1	 0	 1	-30	 30;
	 20	 823	 0.01325	 0.043221	 0.01148	 142	 149.1	 156.2	 0	 0	 1	-30	 30;
	 20	 1190	 0.003471	 0.12495	 0	 100	 100	 100	 1	 0	 1	-30	 30;
	 20	 1190	 0.003471	 0.12495	 0	 100	 100	 100	 1	 0	 1	-30	 30;
	 20	 1405	 0.013707	 0.048786	 0.01085	 142	 149.1	 156.2	 0	 0	 1	-30	 30;
	 21	 683	 0.001857	 0.00655	 0.00148	 142	 149.1	 156.2	 0	 0	 1	-30	 30;
	 21	 697	 0.001014	 0.00395	 0.00106	 159	 166.95	 174.9	 0	 0	 1	-30	 30;
	 21	 1416	 0.000886	 0.005514	 0.00134	 205	 215.25	 225.5	 0	 0	 1	-30	 30;
	 22	 874	 0.00035	 0.002429	 0.00428	 366	 384.3	 402.6	 0	 0	 1	-30	 30;
	 22	 880	 0.001743	 0.011407	 0.02239	 366	 384.3	 402.6	 0	 0	 1	-30	 30;
	 22	 1191	 0.000699	 0.036327	 0	 300	 300	 300	 1	 0	 1	-30	 30;
	 22	 1191	 0.000699	 0.036327	 0	 300	 300	 300	 1	 0	 1	-30	 30;
	 23	 983	 0.000179	 0.001957	 0.01903	 736	 772.8	 809.6	 0	 0	 1	-30	 30;
	 23	 1193	 0.000357	 0.024997	 0	 400	 400	 400	 1	 0	 1	-30	 30;
	 23	 1193	 0.000357	 0.024997	 0	 400	 400	 400	 1	 0	 1	-30	 30;
	 24	 115	 0.011886	 0.053979	 0.01874	 191	 200.55	 210.1	 0	 0	 1	-30	 30;
	 24	 1195	 0.003471	 0.12495	 0	 100	 100	 100	 1	 0	 1	-30	 30;
	 24	 1195	 0.003471	 0.12495	 0	 100	 100	 100	 1	 0	 1	-30	 30;
	 24	 1225	 0.008071	 0.040814	 0.01136	 191	 200.55	 210.1	 0	 0	 1	-30	 30;
	 25	 627	 0.006679	 0.035971	 0.00989	 193	 202.65	 212.3	 0	 0	 1	-30	 30;
	 25	 628	 0.009293	 0.057157	 0.01649	 219	 229.95	 240.9	 0	 0	 1	-30	 30;
	 26	 891	 0.001914	 0.003936	 8e-05	 57	 59.85	 62.7	 0	 0	 1	-30	 30;
	 26	 892	 0.009807	 0.022764	 0.00034	 57	 59.85	 62.7	 0	 0	 1	-30	 30;
	 27	 1088	 0.003743	 0.0102	 0.00225	 118	 123.9	 129.8	 0	 0	 1	-30	 30;
	 27	 1092	 0.000536	 0.00145	 0.00033	 118	 123.9	 129.8	 0	 0	 1	-30	 30;
	 27	 1100	 0.000707	 0.002821	 0.00071	 159	 166.95	 174.9	 0	 0	 1	-30	 30;
	 27	 1101	 0.001964	 0.009007	 0.00231	 175	 183.75	 192.5	 0	 0	 1	-30	 30;
	 27	 1102	 0.00205	 0.006907	 0.00171	 142	 149.1	 156.2	 0	 0	 1	-30	 30;
	 1184	 28	 0.000221	 0.002271	 0.02519	 736	 772.8	 809.6	 0	 0	 1	-30	 30;
	 28	 1196	 0.000357	 0.024997	 0	 400	 400	 400	 1	 0	 1	-30	 30;
	 28	 1196	 0.000357	 0.024997	 0	 400	 400	 400	 1	 0	 1	-30	 30;
	 29	 507	 0.000864	 0.009779	 0.08905	 736	 772.8	 809.6	 0	 0	 1	-30	 30;
	 29	 566	 0.000521	 0.006221	 0.0571	 768	 806.4	 844.8	 0	 0	 1	-30	 30;
	 29	 1199	 0.000357	 0.024997	 0	 400	 400	 400	 1	 0	 1	-30	 30;
	 29	 1199	 0.000357	 0.024997	 0	 400	 400	 400	 1	 0	 1	-30	 30;
	 1188	 30	 0.003229	 0.023264	 0.01943	 437	 458.85	 480.7	 0	 0	 1	-30	 30;
	 30	 1212	 0.005064	 0.0521	 0.01478	 293	 307.65	 322.3	 0	 0	 1	-30	 30;
	 30	 1213	 0.00385	 0.03305	 0.00941	 261	 274.05	 287.1	 0	 0	 1	-30	 30;
	 31	 875	 0.002243	 0.010671	 0.00309	 185	 194.25	 203.5	 0	 0	 1	-30	 30;
	 1191	 31	 0.000343	 0.002121	 0.0006	 219	 229.95	 240.9	 0	 0	 1	-30	 30;
	 32	 651	 0.002986	 0.010564	 0.00238	 142	 149.1	 156.2	 0	 0	 1	-30	 30;
	 32	 655	 0.023593	 0.059329	 0.01538	 118	 123.9	 129.8	 0	 0	 1	-30	 30;
	 32	 1202	 0.003471	 0.12495	 0	 100	 100	 100	 1	 0	 1	-30	 30;
	 32	 1202	 0.003471	 0.12495	 0	 100	 100	 100	 1	 0	 1	-30	 30;
	 33	 856	 0.003307	 0.012029	 0.00369	 159	 166.95	 174.9	 0	 0	 1	-30	 30;
	 33	 859	 0.005386	 0.013536	 0.00351	 118	 123.9	 129.8	 0	 0	 1	-30	 30;
	 33	 861	 0.004193	 0.016786	 0.00423	 159	 166.95	 174.9	 0	 0	 1	-30	 30;
	 33	 862	 0.010764	 0.025943	 0.00733	 118	 123.9	 129.8	 0	 0	 1	-30	 30;
	 34	 115	 0.023471	 0.097629	 0.02281	 159	 166.95	 174.9	 0	 0	 1	-30	 30;
	 34	 1225	 0.005464	 0.019871	 0.00609	 159	 166.95	 174.9	 0	 0	 1	-30	 30;
	 35	 717	 0.182293	 0.373571	 0.00921	 59	 61.95	 64.9	 0	 0	 1	-30	 30;
	 35	 813	 0.0737	 0.145936	 0.00214	 41	 43.05	 45.1	 0	 0	 1	-30	 30;
	 35	 831	 0.079507	 0.15745	 0.00231	 41	 43.05	 45.1	 0	 0	 1	-30	 30;
	 35	 1078	 0.105093	 0.07445	 0.00118	 24	 25.2	 26.4	 0	 0	 1	-30	 30;
	 35	 1406	 0.07875	 0.138514	 0.0026	 41	 43.05	 45.1	 0	 0	 1	-30	 30;
	 36	 566	 0.000107	 0.00125	 0.01136	 736	 772.8	 809.6	 0	 0	 1	-30	 30;
	 36	 568	 0.000129	 0.001479	 0.0138	 736	 772.8	 809.6	 0	 0	 1	-30	 30;
	 36	 1203	 0.001184	 0.059188	 0	 250	 250	 250	 1	 0	 1	-30	 30;
	 36	 1203	 0.001184	 0.059188	 0	 250	 250	 250	 1	 0	 1	-30	 30;
	 37	 567	 0.007071	 0.024264	 0.00581	 142	 149.1	 156.2	 0	 0	 1	-30	 30;
	 37	 569	 0.003907	 0.019771	 0.0055	 191	 200.55	 210.1	 0	 0	 1	-30	 30;
	 38	 734	 0.009279	 0.026021	 0.0067	 128	 134.4	 140.8	 0	 0	 1	-30	 30;
	 38	 823	 0.003779	 0.009993	 0.00234	 118	 123.9	 129.8	 0	 0	 1	-30	 30;
	 39	 74	 0.0005	 0.005664	 0.05117	 736	 772.8	 809.6	 0	 0	 1	-30	 30;
	 39	 1204	 0.000529	 0.036996	 0	 400	 400	 400	 1	 0	 1	-30	 30;
	 39	 1204	 0.000529	 0.036996	 0	 400	 400	 400	 1	 0	 1	-30	 30;
	 40	 1206	 0.025307	 0.0345	 0.00076	 37	 38.85	 40.7	 0	 0	 1	-30	 30;
	 41	 1205	 0.000329	 0.024664	 0	 600	 600	 600	 1	 0	 1	-30	 30;
	 1206	 42	 0.035957	 0.023279	 0.00044	 24	 25.2	 26.4	 0	 0	 1	-30	 30;
	 43	 45	 0.000471	 0.002514	 0.00064	 191	 200.55	 210.1	 0	 0	 1	-30	 30;
	 43	 48	 0.002121	 0.008836	 0.00276	 175	 183.75	 192.5	 0	 0	 1	-30	 30;
	 44	 45	 0.001814	 0.010429	 0.00296	 205	 215.25	 225.5	 0	 0	 1	-30	 30;
	 44	 51	 0.006364	 0.016821	 0.00394	 118	 123.9	 129.8	 0	 0	 1	-30	 30;
	 1167	 44	 0.003443	 0.037721	 0.01046	 307	 322.35	 337.7	 0	 0	 1	-30	 30;
	 44	 1207	 0.002136	 0.083306	 0	 150	 150	 150	 1	 0	 1	-30	 30;
	 44	 1207	 0.002136	 0.083306	 0	 150	 150	 150	 1	 0	 1	-30	 30;
	 46	 1208	 0.030264	 0.019593	 0.00037	 24	 25.2	 26.4	 0	 0	 1	-30	 30;
	 47	 1208	 0.013993	 0.009907	 0.00016	 24	 25.2	 26.4	 0	 0	 1	-30	 30;
	 48	 49	 0.000871	 0.007243	 0.00191	 250	 262.5	 275	 0	 0	 1	-30	 30;
	 48	 112	 0.003357	 0.010943	 0.00291	 142	 149.1	 156.2	 0	 0	 1	-30	 30;
	 1167	 48	 0.004479	 0.049514	 0.01486	 317	 332.85	 348.7	 0	 0	 1	-30	 30;
	 48	 1208	 0.003471	 0.12495	 0	 100	 100	 100	 1	 0	 1	-30	 30;
	 48	 1208	 0.003471	 0.12495	 0	 100	 100	 100	 1	 0	 1	-30	 30;
	 49	 1209	 0.003471	 0.12495	 0	 100	 100	 100	 1	 0	 1	-30	 30;
	 49	 1209	 0.003471	 0.12495	 0	 100	 100	 100	 1	 0	 1	-30	 30;
	 50	 53	 0.075579	 0.053536	 0.00084	 24	 25.2	 26.4	 0	 0	 1	-30	 30;
	 51	 61	 0.012793	 0.034357	 0.00779	 118	 123.9	 129.8	 0	 0	 1	-30	 30;
	 52	 53	 0.013086	 0.023014	 0.00044	 41	 43.05	 45.1	 0	 0	 1	-30	 30;
	 1208	 52	 0.065879	 0.04265	 0.00081	 24	 25.2	 26.4	 0	 0	 1	-30	 30;
	 53	 54	 0.004486	 0.017529	 0.00039	 88	 92.4	 96.8	 0	 0	 1	-30	 30;
	 53	 56	 0.122943	 0.0796	 0.00151	 24	 25.2	 26.4	 0	 0	 1	-30	 30;
	 1207	 54	 0.008007	 0.035479	 0.00106	 103	 108.15	 113.3	 0	 0	 1	-30	 30;
	 55	 57	 0.043593	 0.030879	 0.00049	 24	 25.2	 26.4	 0	 0	 1	-30	 30;
	 1209	 55	 0.014429	 0.02965	 0.00056	 57	 59.85	 62.7	 0	 0	 1	-30	 30;
	 57	 58	 0.0909	 0.05885	 0.00112	 24	 25.2	 26.4	 0	 0	 1	-30	 30;
	 59	 60	 0.010921	 0.028364	 0.00689	 118	 123.9	 129.8	 0	 0	 1	-30	 30;
	 59	 1143	 0.011514	 0.029593	 0.00733	 118	 123.9	 129.8	 0	 0	 1	-30	 30;
	 59	 1210	 0.00806	 0.24987	 0	 50	 50	 50	 1	 0	 1	-30	 30;
	 59	 1210	 0.00806	 0.24987	 0	 50	 50	 50	 1	 0	 1	-30	 30;
	 60	 61	 0.011	 0.02855	 0.00693	 118	 123.9	 129.8	 0	 0	 1	-30	 30;
	 60	 1143	 0.01395	 0.037993	 0.00837	 118	 123.9	 129.8	 0	 0	 1	-30	 30;
	 60	 1211	 0.00806	 0.24987	 0	 50	 50	 50	 1	 0	 1	-30	 30;
	 60	 1211	 0.00806	 0.24987	 0	 50	 50	 50	 1	 0	 1	-30	 30;
	 1166	 62	 0.002207	 0.013393	 0.03051	 366	 384.3	 402.6	 0	 0	 1	-30	 30;
	 1181	 62	 0.004514	 0.031693	 0.054	 366	 384.3	 402.6	 0	 0	 1	-30	 30;
	 63	 674	 0.544614	 0.353507	 0.00673	 24	 25.2	 26.4	 0	 0	 1	-30	 30;
	 64	 65	 0.002236	 0.030064	 0.10629	 871	 914.55	 958.1	 0	 0	 1	-30	 30;
	 64	 1029	 0.0024	 0.029793	 0.10769	 834	 875.7	 917.4	 0	 0	 1	-30	 30;
	 65	 66	 0.000714	 0.008971	 0.03138	 834	 875.7	 917.4	 0	 0	 1	-30	 30;
	 65	 1212	 0.000577	 0.031138	 0	 350	 350	 350	 1	 0	 1	-30	 30;
	 65	 1212	 0.000577	 0.031138	 0	 350	 350	 350	 1	 0	 1	-30	 30;
	 1177	 66	 0.004021	 0.033579	 0.10491	 635	 666.75	 698.5	 0	 0	 1	-30	 30;
	 1187	 66	 0.001021	 0.013321	 0.04313	 834	 875.7	 917.4	 0	 0	 1	-30	 30;
	 66	 1213	 0.000699	 0.036327	 0	 300	 300	 300	 1	 0	 1	-30	 30;
	 66	 1213	 0.000699	 0.036327	 0	 300	 300	 300	 1	 0	 1	-30	 30;
	 67	 68	 0.00225	 0.023814	 0.00707	 307	 322.35	 337.7	 0	 0	 1	-30	 30;
	 67	 625	 0.010107	 0.078357	 0.02748	 261	 274.05	 287.1	 0	 0	 1	-30	 30;
	 68	 1214	 0.002579	 0.028514	 0.00855	 317	 332.85	 348.7	 0	 0	 1	-30	 30;
	 1178	 69	 0.016357	 0.041429	 0.00082	 64	 67.2	 70.4	 0	 0	 1	-30	 30;
	 70	 1215	 0.055507	 0.043507	 0.00056	 24	 25.2	 26.4	 0	 0	 1	-30	 30;
	 1177	 71	 0.00145	 0.009893	 0.01781	 366	 384.3	 402.6	 0	 0	 1	-30	 30;
	 71	 1214	 0.000389	 0.027247	 0	 400	 400	 400	 1	 0	 1	-30	 30;
	 1215	 71	 0.001336	 0.066787	 0	 250	 250	 250	 1	 0	 1	-30	 30;
	 72	 73	 0.038229	 0.027079	 0.00043	 24	 25.2	 26.4	 0	 0	 1	-30	 30;
	 72	 103	 0.011029	 0.019821	 0.00036	 41	 43.05	 45.1	 0	 0	 1	-30	 30;
	 1215	 72	 0.014829	 0.023664	 0.00054	 41	 43.05	 45.1	 0	 0	 1	-30	 30;
...
];

mpc_regionR1.gencost = [
%	2           startup     shutdown    n           c(n-1)...c0 
	 2	 0	 0	 3	 0.062	 14.879	 43.97;
	 2	 0	 0	 3	 0	 14.879	 7248.63;
	 2	 0	 0	 3	 0	 14.879	 7248.63;
	 2	 0	 0	 3	 0	 14.879	 7248.63;
	 2	 0	 0	 3	 0	 14.879	 7248.63;
	 2	 0	 0	 3	 0	 14.879	 7248.63;
	 2	 0	 0	 3	 0	 14.879	 7248.63;
	 2	 0	 0	 3	 0	 14.879	 7248.63;
	 2	 0	 0	 3	 0	 14.879	 7248.63;
	 2	 0	 0	 3	 0	 14.879	 7248.63;
	 2	 0	 0	 3	 0	 14.879	 7248.63;
	 2	 0	 0	 3	 0.062	 14.879	 43.97;
	 2	 0	 0	 3	 0	 14.879	 7248.63;
	 2	 0	 0	 3	 0	 14.879	 7248.63;
	 2	 0	 0	 3	 0	 14.879	 7248.63;
	 2	 0	 0	 3	 0	 14.879	 7248.63;
	 2	 0	 0	 3	 0	 14.879	 7248.63;
	 2	 0	 0	 3	 0	 14.879	 7248.63;
	 2	 0	 0	 3	 0	 14.879	 7248.63;
	 2	 0	 0	 3	 0	 14.879	 7248.63;
	 2	 0	 0	 3	 0	 14.879	 7248.63;
	 2	 0	 0	 3	 0	 14.879	 7248.63;
	 2	 0	 0	 3	 0.062	 14.879	 43.97;
	 2	 0	 0	 3	 0	 14.879	 7248.63;
	 2	 0	 0	 3	 0	 14.879	 7248.63;
	 2	 0	 0	 3	 0	 14.879	 7248.63;
	 2	 0	 0	 3	 0	 14.879	 7248.63;
	 2	 0	 0	 3	 0.021	 14.879	 131.69;
	 2	 0	 0	 3	 0.021	 14.879	 131.69;
	 2	 0	 0	 3	 0.021	 14.879	 131.69;
	 2	 0	 0	 3	 0.021	 14.879	 131.69;
	 2	 0	 0	 3	 0.021	 14.879	 131.69;
	 2	 0	 0	 3	 0.021	 14.879	 131.69;
	 2	 0	 0	 3	 0.062	 14.879	 43.97;
	 2	 0	 0	 3	 0.021	 14.879	 131.69;
	 2	 0	 0	 3	 0.021	 14.879	 131.69;
	 2	 0	 0	 3	 0.021	 14.879	 131.69;
	 2	 0	 0	 3	 0.021	 14.879	 131.69;
	 2	 0	 0	 3	 0.021	 14.879	 131.69;
	 2	 0	 0	 3	 0.021	 14.879	 131.69;
	 2	 0	 0	 3	 0.021	 14.879	 131.69;
	 2	 0	 0	 3	 0.021	 14.879	 131.69;
	 2	 0	 0	 3	 0.021	 14.879	 131.69;
	 2	 0	 0	 3	 0.021	 14.879	 131.69;
	 2	 0	 0	 3	 0.062	 14.879	 43.97;
	 2	 0	 0	 3	 0.021	 14.879	 131.69;
	 2	 0	 0	 3	 0.021	 14.879	 131.69;
	 2	 0	 0	 3	 0.005	 14.879	 573.64;
	 2	 0	 0	 3	 0.005	 14.879	 573.64;
	 2	 0	 0	 3	 0.005	 14.879	 573.64;
	 2	 0	 0	 3	 0.003	 14.879	 898.41;
	 2	 0	 0	 3	 0.003	 14.879	 898.41;
	 2	 0	 0	 3	 0.003	 14.879	 898.41;
	 2	 0	 0	 3	 0.062	 14.879	 43.97;
	 2	 0	 0	 3	 0	 14.879	 7248.63;
	 2	 0	 0	 3	 0	 14.879	 7248.63;
	 2	 0	 0	 3	 0	 14.879	 7248.63;
	 2	 0	 0	 3	 0	 0	 0;
	 2	 0	 0	 3	 0.053	 14.879	 51.34;
	 2	 0	 0	 3	 0.053	 14.879	 51.34;
	 2	 0	 0	 3	 0.053	 14.879	 51.34;
	 2	 0	 0	 3	 0.053	 14.879	 51.34;
	 2	 0	 0	 3	 0.002	 12.823	 1158.63;
	 2	 0	 0	 3	 0.002	 12.823	 1158.63;
	 2	 0	 0	 3	 0.009	 18.772	 588.04;
	 2	 0	 0	 3	 0.009	 18.772	 588.04;
	 2	 0	 0	 3	 0.009	 18.772	 588.04;
	 2	 0	 0	 3	 0.009	 18.772	 588.04;
	 2	 0	 0	 3	 0.009	 18.772	 588.04;
	 2	 0	 0	 3	 0.009	 18.772	 588.04;
	 2	 0	 0	 3	 0.032	 9.547	 2249.86;
	 2	 0	 0	 3	 0.032	 9.547	 2249.86;
	 2	 0	 0	 3	 0.026	 11.398	 993.75;
	 2	 0	 0	 3	 0.021	 14.879	 131.69;
	 2	 0	 0	 3	 0.021	 14.879	 131.69;
	 2	 0	 0	 3	 0.021	 14.879	 131.69;
	 2	 0	 0	 3	 0.021	 14.879	 131.69;
	 2	 0	 0	 3	 0.021	 14.879	 131.69;
	 2	 0	 0	 3	 0.021	 14.879	 131.69;
	 2	 0	 0	 3	 0.021	 14.879	 131.69;
	 2	 0	 0	 3	 0.021	 14.879	 131.69;
	 2	 0	 0	 3	 0.021	 14.879	 131.69;
	 2	 0	 0	 3	 0.021	 14.879	 131.69;
	 2	 0	 0	 3	 0.021	 14.879	 131.69;
	 2	 0	 0	 3	 0.021	 14.879	 131.69;
	 2	 0	 0	 3	 0.021	 14.879	 131.69;
	 2	 0	 0	 3	 0.021	 14.879	 131.69;
	 2	 0	 0	 3	 0.021	 14.879	 131.69;
	 2	 0	 0	 3	 0	 0	 0;
	 2	 0	 0	 3	 0.009	 18.772	 588.04;
	 2	 0	 0	 3	 0.009	 18.772	 588.04;
	 2	 0	 0	 3	 0.009	 18.772	 588.04;
	 2	 0	 0	 3	 0.021	 14.879	 131.69;
	 2	 0	 0	 3	 0.021	 14.879	 131.69;
	 2	 0	 0	 3	 0.021	 14.879	 131.69;
	 2	 0	 0	 3	 0.021	 14.879	 131.69;
	 2	 0	 0	 3	 0.021	 14.879	 131.69;
	 2	 0	 0	 3	 0.021	 14.879	 131.69;
	 2	 0	 0	 3	 0.021	 14.879	 131.69;
	 2	 0	 0	 3	 0.021	 14.879	 131.69;
	 2	 0	 0	 3	 0.021	 14.879	 131.69;
	 2	 0	 0	 3	 0.021	 14.879	 131.69;
	 2	 0	 0	 3	 0	 0	 0;
	 2	 0	 0	 3	 0.007	 16.922	 371.49;
	 2	 0	 0	 3	 0.007	 16.922	 371.49;
	 2	 0	 0	 3	 0.021	 14.879	 131.69;
	 2	 0	 0	 3	 0.021	 14.879	 131.69;
	 2	 0	 0	 3	 0.021	 14.879	 131.69;
	 2	 0	 0	 3	 0.021	 14.879	 131.69;
	 2	 0	 0	 3	 0.021	 14.879	 131.69;
	 2	 0	 0	 3	 0.021	 14.879	 131.69;
	 2	 0	 0	 3	 0.021	 14.879	 131.69;
	 2	 0	 0	 3	 0.021	 14.879	 131.69;
	 2	 0	 0	 3	 0.021	 14.879	 131.69;
	 2	 0	 0	 3	 0.021	 14.879	 131.69;
	 2	 0	 0	 3	 0.021	 14.879	 131.69;
	 2	 0	 0	 3	 0.021	 14.879	 131.69;
	 2	 0	 0	 3	 0.021	 14.879	 131.69;
	 2	 0	 0	 3	 0.021	 14.879	 131.69;
	 2	 0	 0	 3	 0.021	 14.879	 131.69;
	 2	 0	 0	 3	 0.021	 14.879	 131.69;
	 2	 0	 0	 3	 0.021	 14.879	 131.69;
	 2	 0	 0	 3	 0.021	 14.879	 131.69;
	 2	 0	 0	 3	 0.021	 14.879	 131.69;
	 2	 0	 0	 3	 0.021	 14.879	 131.69;
	 2	 0	 0	 3	 0.021	 14.879	 131.69;
	 2	 0	 0	 3	 0.021	 14.879	 131.69;
	 2	 0	 0	 3	 0.021	 14.879	 131.69;
	 2	 0	 0	 3	 0.021	 14.879	 131.69;
	 2	 0	 0	 3	 0.021	 14.879	 131.69;
	 2	 0	 0	 3	 0.021	 14.879	 131.69;
	 2	 0	 0	 3	 0.021	 14.879	 131.69;
	 2	 0	 0	 3	 0.053	 14.879	 51.34;
	 2	 0	 0	 3	 0.009	 18.772	 588.04;
	 2	 0	 0	 3	 0.007	 16.922	 371.49;
	 2	 0	 0	 3	 0.007	 16.922	 371.49;
	 2	 0	 0	 3	 0.021	 14.879	 131.69;
	 2	 0	 0	 3	 0.021	 14.879	 131.69;
	 2	 0	 0	 3	 0.021	 14.879	 131.69;
	 2	 0	 0	 3	 0.021	 14.879	 131.69;
	 2	 0	 0	 3	 0.021	 14.879	 131.69;
	 2	 0	 0	 3	 0.021	 14.879	 131.69;
	 2	 0	 0	 3	 0.021	 14.879	 131.69;
	 2	 0	 0	 3	 0.021	 14.879	 131.69;
	 2	 0	 0	 3	 0.021	 14.879	 131.69;
	 2	 0	 0	 3	 0.021	 14.879	 131.69;
	 2	 0	 0	 3	 0.021	 14.879	 131.69;
	 2	 0	 0	 3	 0.062	 14.879	 43.97;
	 2	 0	 0	 3	 0.062	 14.879	 43.97;
	 2	 0	 0	 3	 0.062	 14.879	 43.97;
	 2	 0	 0	 3	 0.062	 14.879	 43.97;
	 2	 0	 0	 3	 0.062	 14.879	 43.97;
	 2	 0	 0	 3	 0.062	 14.879	 43.97;
	 2	 0	 0	 3	 0.054	 34.387	 271.58;
	 2	 0	 0	 3	 0.026	 13.537	 318.86;
	 2	 0	 0	 3	 0.026	 13.537	 318.86;
	 2	 0	 0	 3	 0.007	 16.922	 371.49;
	 2	 0	 0	 3	 0.007	 16.922	 371.49;
	 2	 0	 0	 3	 0.062	 14.879	 43.97;
	 2	 0	 0	 3	 0.062	 14.879	 43.97;
	 2	 0	 0	 3	 0	 0	 0.38;
	 2	 0	 0	 3	 0	 0	 0;
	 2	 0	 0	 3	 0.073	 34.526	 226.22;
	 2	 0	 0	 3	 0.053	 14.879	 51.34;
	 2	 0	 0	 3	 0.053	 14.879	 51.34;
	 2	 0	 0	 3	 0.053	 14.879	 51.34;
	 2	 0	 0	 3	 0.053	 14.879	 51.34;
	 2	 0	 0	 3	 0.062	 14.879	 43.97;
	 2	 0	 0	 3	 0.062	 14.879	 43.97;
	 2	 0	 0	 3	 0.108	 34.775	 181.33;
	 2	 0	 0	 3	 0.062	 14.879	 43.97;
	 2	 0	 0	 3	 0.062	 14.879	 43.97;
	 2	 0	 0	 3	 0.062	 14.879	 43.97;
	 2	 0	 0	 3	 0.026	 13.537	 318.86;
	 2	 0	 0	 3	 0.026	 13.537	 318.86;
	 2	 0	 0	 3	 0.026	 13.537	 318.86;
	 2	 0	 0	 3	 0.053	 14.879	 51.34;
	 2	 0	 0	 3	 0.062	 14.879	 43.97;
	 2	 0	 0	 3	 0.062	 14.879	 43.97;
	 2	 0	 0	 3	 0.062	 14.879	 43.97;
	 2	 0	 0	 3	 0.062	 14.879	 43.97;
	 2	 0	 0	 3	 0.062	 14.879	 43.97;
	 2	 0	 0	 3	 0.062	 14.879	 43.97;
	 2	 0	 0	 3	 0.062	 14.879	 43.97;
	 2	 0	 0	 3	 0.062	 14.879	 43.97;
	 2	 0	 0	 3	 0.062	 14.879	 43.97;
	 2	 0	 0	 3	 0.062	 14.879	 43.97;
	 2	 0	 0	 3	 0.062	 14.879	 43.97;
	 2	 0	 0	 3	 0.062	 14.879	 43.97;
	 2	 0	 0	 3	 0.062	 14.879	 43.97;
	 2	 0	 0	 3	 0.062	 14.879	 43.97;
	 2	 0	 0	 3	 0.062	 14.879	 43.97;
	 2	 0	 0	 3	 0.062	 14.879	 43.97;
	 2	 0	 0	 3	 0.062	 14.879	 43.97;
	 2	 0	 0	 3	 0.062	 14.879	 43.97;
	 2	 0	 0	 3	 0.062	 14.879	 43.97;
	 2	 0	 0	 3	 0.062	 14.879	 43.97;
	 2	 0	 0	 3	 0.062	 14.879	 43.97;
	 2	 0	 0	 3	 0.062	 14.879	 43.97;
	 2	 0	 0	 3	 0.062	 14.879	 43.97;
...
];


% -------------------- mpc_regionR2 --------------------

mpc_regionR2.version = '2';
mpc_regionR2.baseMVA = 100.0000;
mpc_regionR2.bus = [
%	bus_i       type        Pd          Qd          Gs          Bs          area        Vm          Va          baseKV      zone        Vmax        Vmin        
	 1	 2	 0	 0	 0	 0	 8	 1	 0	 500	 1	 1.1	 0.9;
	 2	 2	 0	 0	 0	 0	 8	 1	 0	 500	 1	 1.1	 0.9;
	 3	 2	 0	 0	 0	 0	 8	 1	 0	 500	 1	 1.1	 0.9;
	 4	 2	 0	 0	 0	 0	 8	 1	 0	 138	 1	 1.1	 0.9;
	 5	 2	 0	 0	 0	 0	 8	 1	 0	 230	 1	 1.1	 0.9;
	 6	 2	 0	 0	 0	 0	 8	 1	 0	 345	 1	 1.1	 0.9;
	 7	 2	 0	 0	 0	 0	 8	 1	 0	 345	 1	 1.1	 0.9;
	 8	 2	 0	 0	 0	 0	 8	 1	 0	 500	 1	 1.1	 0.9;
	 9	 2	 0	 0	 0	 0	 8	 1	 0	 500	 1	 1.1	 0.9;
	 10	 1	 0	 0	 0	 37.41	 8	 1	 0	 500	 1	 1.1	 0.9;
	 11	 2	 0	 0	 0	 0	 8	 1	 0	 138	 1	 1.1	 0.9;
	 12	 2	 0	 0	 0	 0	 8	 1	 0	 500	 1	 1.1	 0.9;
	 13	 2	 0	 0	 0	 0	 8	 1	 0	 138	 1	 1.1	 0.9;
	 14	 2	 0	 0	 0	 0	 8	 1	 0	 500	 1	 1.1	 0.9;
	 15	 2	 0	 0	 0	 0	 8	 1	 0	 138	 1	 1.1	 0.9;
	 16	 2	 0	 0	 0	 0	 8	 1	 0	 138	 1	 1.1	 0.9;
	 17	 2	 0	 0	 0	 0	 8	 1	 0	 138	 1	 1.1	 0.9;
	 18	 1	 0	 0	 0	-52.72	 8	 1	 0	 345	 1	 1.1	 0.9;
	 19	 2	 0	 0	 0	 0	 8	 1	 0	 230	 1	 1.1	 0.9;
	 20	 2	 0	 0	 0	 0	 8	 1	 0	 138	 1	 1.1	 0.9;
	 21	 2	 0	 0	 0	 0	 8	 1	 0	 500	 1	 1.1	 0.9;
	 22	 2	 0	 0	 0	 0	 8	 1	 0	 138	 1	 1.1	 0.9;
	 23	 2	 0	 0	 0	 0	 8	 1	 0	 138	 1	 1.1	 0.9;
	 24	 1	 0	 0	 0	 0	 8	 1	 0	 138	 1	 1.1	 0.9;
	 25	 2	 0	 0	 0	 0	 8	 1	 0	 500	 1	 1.1	 0.9;
	 26	 2	 0	 0	 0	 0	 8	 1	 0	 138	 1	 1.1	 0.9;
	 27	 2	 0	 0	 0	 0	 8	 1	 0	 69	 1	 1.1	 0.9;
	 28	 2	 0	 0	 0	 0	 8	 1	 0	 138	 1	 1.1	 0.9;
	 29	 2	 0	 0	 0	 0	 8	 1	 0	 138	 1	 1.1	 0.9;
	 30	 2	 0	 0	 0	 0	 8	 1	 0	 138	 1	 1.1	 0.9;
	 31	 2	 0	 0	 0	 0	 8	 1	 0	 138	 1	 1.1	 0.9;
	 32	 2	 0	 0	 0	 0	 8	 1	 0	 69	 1	 1.1	 0.9;
	 33	 2	 0	 0	 0	 0	 8	 1	 0	 69	 1	 1.1	 0.9;
	 34	 2	 0	 0	 0	 0	 8	 1	 0	 138	 1	 1.1	 0.9;
	 35	 2	 0	 0	 0	 0	 8	 1	 0	 69	 1	 1.1	 0.9;
	 36	 2	 0	 0	 0	 0	 8	 1	 0	 138	 1	 1.1	 0.9;
	 37	 2	 0	 0	 0	 0	 8	 1	 0	 69	 1	 1.1	 0.9;
	 38	 2	 0	 0	 0	 0	 8	 1	 0	 69	 1	 1.1	 0.9;
	 39	 2	 0	 0	 0	 0	 8	 1	 0	 230	 1	 1.1	 0.9;
	 40	 2	 0	 0	 0	 0	 8	 1	 0	 138	 1	 1.1	 0.9;
	 41	 2	 0	 0	 0	 0	 8	 1	 0	 69	 1	 1.1	 0.9;
	 42	 2	 0	 0	 0	 0	 8	 1	 0	 69	 1	 1.1	 0.9;
	 43	 2	 0	 0	 0	 0	 8	 1	 0	 69	 1	 1.1	 0.9;
	 44	 2	 0	 0	 0	 0	 8	 1	 0	 69	 1	 1.1	 0.9;
	 45	 2	 0	 0	 0	 0	 8	 1	 0	 230	 1	 1.1	 0.9;
	 46	 2	 0	 0	 0	 0	 8	 1	 0	 69	 1	 1.1	 0.9;
	 47	 2	 0	 0	 0	 0	 8	 1	 0	 138	 1	 1.1	 0.9;
	 48	 2	 0	 0	 0	 0	 8	 1	 0	 69	 1	 1.1	 0.9;
	 49	 2	 0	 0	 0	 0	 8	 1	 0	 69	 1	 1.1	 0.9;
	 50	 1	 0	 0	 0	 0	 10	 1	 0	 500	 1	 1.1	 0.9;
	 51	 1	 0	 0	 0	 0	 10	 1	 0	 230	 1	 1.1	 0.9;
	 52	 2	 0	 0	 0	 0	 10	 1	 0	 345	 1	 1.1	 0.9;
	 53	 2	 0	 0	 0	 0	 10	 1	 0	 138	 1	 1.1	 0.9;
	 54	 2	 0	 0	 0	 0	 10	 1	 0	 230	 1	 1.1	 0.9;
	 55	 1	 0	 0	 0	 52.05	 10	 1	 0	 500	 1	 1.1	 0.9;
	 56	 2	 0	 0	 0	 0	 10	 1	 0	 230	 1	 1.1	 0.9;
	 57	 2	 0	 0	 0	 0	 10	 1	 0	 230	 1	 1.1	 0.9;
	 58	 2	 0	 0	 0	 0	 10	 1	 0	 138	 1	 1.1	 0.9;
	 59	 2	 0	 0	 0	 0	 10	 1	 0	 138	 1	 1.1	 0.9;
	 60	 2	 0	 0	 0	 0	 10	 1	 0	 138	 1	 1.1	 0.9;
	 61	 2	 0	 0	 0	 0	 10	 1	 0	 138	 1	 1.1	 0.9;
	 62	 2	 0	 0	 0	 0	 10	 1	 0	 138	 1	 1.1	 0.9;
	 63	 2	 0	 0	 0	 0	 10	 1	 0	 69	 1	 1.1	 0.9;
	 64	 2	 0	 0	 0	 0	 10	 1	 0	 138	 1	 1.1	 0.9;
	 65	 2	 0	 0	 0	 0	 10	 1	 0	 230	 1	 1.1	 0.9;
	 66	 2	 0	 0	 0	 0	 10	 1	 0	 138	 1	 1.1	 0.9;
	 67	 2	 0	 0	 0	 0	 10	 1	 0	 138	 1	 1.1	 0.9;
	 68	 2	 0	 0	 0	 0	 10	 1	 0	 69	 1	 1.1	 0.9;
	 69	 1	 0	 0	 0	 0	 10	 1	 0	 345	 1	 1.1	 0.9;
	 70	 1	 14.93	 2.25	 0	 0	 8	 1	 0	 69	 1	 1.1	 0.9;
	 71	 1	 6.16	 1.46	 0	 0	 8	 1	 0	 69	 1	 1.1	 0.9;
	 72	 1	 8.06	 1.88	 0	 0	 8	 1	 0	 69	 1	 1.1	 0.9;
	 73	 1	 3.92	 0.83	 0	 0	 8	 1	 0	 69	 1	 1.1	 0.9;
	 74	 1	 0	 0	 0	 0	 8	 1	 0	 138	 1	 1.1	 0.9;
	 75	 1	 5.22	 0.74	 0	 0	 8	 1	 0	 69	 1	 1.1	 0.9;
	 76	 1	 6.92	 1.62	 0	 0	 8	 1	 0	 69	 1	 1.1	 0.9;
	 77	 1	 3.49	 0.73	 0	 0	 8	 1	 0	 69	 1	 1.1	 0.9;
	 78	 1	 4.43	 1.21	 0	 0	 8	 1	 0	 69	 1	 1.1	 0.9;
	 79	 1	 5.79	 0.87	 0	 0	 8	 1	 0	 69	 1	 1.1	 0.9;
	 80	 1	 8.54	 1.31	 0	 0	 8	 1	 0	 69	 1	 1.1	 0.9;
	 81	 1	 19.67	 2.66	 0	 0	 8	 1	 0	 69	 1	 1.1	 0.9;
	 82	 1	 4.8	 1.25	 0	 0	 8	 1	 0	 69	 1	 1.1	 0.9;
	 83	 1	 7.29	 1.93	 0	 0	 8	 1	 0	 69	 1	 1.1	 0.9;
	 84	 1	 7.4	 1.4	 0	 0	 8	 1	 0	 69	 1	 1.1	 0.9;
	 85	 1	 0	 0	 0	 0	 8	 1	 0	 138	 1	 1.1	 0.9;
	 86	 1	 12.69	 2.83	 0	 0	 8	 1	 0	 69	 1	 1.1	 0.9;
	 87	 1	 5.81	 0.86	 0	 0	 8	 1	 0	 69	 1	 1.1	 0.9;
	 88	 1	 6.01	 1.18	 0	 0	 8	 1	 0	 69	 1	 1.1	 0.9;
	 89	 1	 0	 0	 0	 0	 8	 1	 0	 138	 1	 1.1	 0.9;
	 90	 1	 0	 0	 0	 0	 8	 1	 0	 138	 1	 1.1	 0.9;
	 91	 1	 5.07	 1.02	 0	 0	 8	 1	 0	 69	 1	 1.1	 0.9;
	 92	 1	 0	 0	 0	 0	 8	 1	 0	 138	 1	 1.1	 0.9;
	 93	 1	 9	 1.56	 0	 0	 8	 1	 0	 69	 1	 1.1	 0.9;
	 94	 1	 3.53	 0.75	 0	 0	 8	 1	 0	 69	 1	 1.1	 0.9;
	 95	 1	 3.93	 0.74	 0	 0	 8	 1	 0	 69	 1	 1.1	 0.9;
	 96	 1	 6.91	 1.48	 0	 0	 8	 1	 0	 69	 1	 1.1	 0.9;
	 97	 1	 2.47	 0.62	 0	 0	 8	 1	 0	 69	 1	 1.1	 0.9;
	 98	 1	 6.57	 0.89	 0	 0	 8	 1	 0	 69	 1	 1.1	 0.9;
	 99	 1	 2.74	 0.43	 0	 0	 8	 1	 0	 69	 1	 1.1	 0.9;
	 100	 1	 0	 0	 0	 0	 8	 1	 0	 138	 1	 1.1	 0.9;
	 101	 1	 4.13	 0.73	 0	 0	 8	 1	 0	 69	 1	 1.1	 0.9;
	 102	 1	 0	 0	 0	 0	 8	 1	 0	 138	 1	 1.1	 0.9;
	 103	 1	 7.59	 2.13	 0	 0	 8	 1	 0	 69	 1	 1.1	 0.9;
	 104	 1	 10.72	 2.33	 0	 0	 8	 1	 0	 138	 1	 1.1	 0.9;
	 105	 1	 6.79	 1.7	 0	 0	 8	 1	 0	 69	 1	 1.1	 0.9;
	 106	 1	 4.96	 0.55	 0	 0	 8	 1	 0	 69	 1	 1.1	 0.9;
	 107	 1	 6.75	 0.88	 0	 0	 8	 1	 0	 69	 1	 1.1	 0.9;
	 108	 1	 7.57	 2.14	 0	 0	 8	 1	 0	 69	 1	 1.1	 0.9;
	 109	 1	 0	 0	 0	 0	 8	 1	 0	 138	 1	 1.1	 0.9;
	 110	 1	 13.72	 3.26	 0	 0	 8	 1	 0	 138	 1	 1.1	 0.9;
	 111	 1	 6.23	 1.23	 0	 0	 8	 1	 0	 69	 1	 1.1	 0.9;
	 112	 1	 13.64	 3.86	 0	 0	 8	 1	 0	 69	 1	 1.1	 0.9;
	 113	 1	 5.75	 1.28	 0	 0	 8	 1	 0	 69	 1	 1.1	 0.9;
	 114	 1	 5.54	 1.45	 0	 0	 8	 1	 0	 69	 1	 1.1	 0.9;
	 115	 1	 5.22	 0.61	 0	 0	 8	 1	 0	 69	 1	 1.1	 0.9;
	 116	 1	 7.02	 1.14	 0	 0	 8	 1	 0	 69	 1	 1.1	 0.9;
	 117	 1	 6.47	 1.35	 0	 0	 8	 1	 0	 69	 1	 1.1	 0.9;
	 118	 1	 5.78	 0.83	 0	 0	 8	 1	 0	 69	 1	 1.1	 0.9;
	 119	 1	 0	 0	 0	 0	 8	 1	 0	 138	 1	 1.1	 0.9;
	 120	 1	 15.47	 4.54	 0	 0	 8	 1	 0	 69	 1	 1.1	 0.9;
	 121	 1	 0	 0	 0	 59.74	 8	 1	 0	 345	 1	 1.1	 0.9;
	 122	 1	 0	 0	 0	 0	 8	 1	 0	 138	 1	 1.1	 0.9;
	 123	 1	 3.84	 0.75	 0	 0	 8	 1	 0	 69	 1	 1.1	 0.9;
	 124	 1	 6.61	 1.29	 0	 0	 8	 1	 0	 138	 1	 1.1	 0.9;
	 125	 1	 5.86	 1.53	 0	 0	 8	 1	 0	 69	 1	 1.1	 0.9;
	 126	 1	 5.95	 1.34	 0	 0	 8	 1	 0	 69	 1	 1.1	 0.9;
	 127	 1	 13.08	 2.11	 0	 0	 8	 1	 0	 69	 1	 1.1	 0.9;
	 128	 1	 6.54	 1.66	 0	 0	 8	 1	 0	 69	 1	 1.1	 0.9;
	 129	 1	 0	 0	 0	 122.93	 8	 1	 0	 345	 1	 1.1	 0.9;
	 130	 1	 0	 0	 0	 0	 8	 1	 0	 138	 1	 1.1	 0.9;
	 131	 1	 4.43	 1.08	 0	 0	 8	 1	 0	 69	 1	 1.1	 0.9;
	 132	 1	 5.37	 1.46	 0	 0	 8	 1	 0	 69	 1	 1.1	 0.9;
	 133	 1	 0	 0	 0	 0	 8	 1	 0	 138	 1	 1.1	 0.9;
	 134	 1	 4.22	 1.09	 0	 0	 8	 1	 0	 69	 1	 1.1	 0.9;
	 135	 1	 0	 0	 0	 0	 8	 1	 0	 138	 1	 1.1	 0.9;
	 136	 1	 0	 0	 0	 0	 8	 1	 0	 138	 1	 1.1	 0.9;
	 137	 1	 4.93	 1.24	 0	 0	 8	 1	 0	 69	 1	 1.1	 0.9;
	 138	 1	 2.7	 0.63	 0	 0	 8	 1	 0	 69	 1	 1.1	 0.9;
	 139	 1	 6.8	 1.64	 0	 0	 8	 1	 0	 69	 1	 1.1	 0.9;
	 140	 1	 4.3	 0.94	 0	 0	 8	 1	 0	 69	 1	 1.1	 0.9;
	 141	 1	 7.08	 1.71	 0	 0	 8	 1	 0	 69	 1	 1.1	 0.9;
	 142	 1	 4.11	 0.95	 0	 0	 8	 1	 0	 69	 1	 1.1	 0.9;
	 143	 1	 7.13	 1.39	 0	 0	 8	 1	 0	 69	 1	 1.1	 0.9;
	 144	 1	 6.1	 1.3	 0	 0	 8	 1	 0	 69	 1	 1.1	 0.9;
	 145	 1	 3.74	 0.92	 0	 0	 8	 1	 0	 69	 1	 1.1	 0.9;
	 146	 1	 4.34	 1.09	 0	 0	 8	 1	 0	 69	 1	 1.1	 0.9;
	 147	 1	 7.74	 1.97	 0	 0	 8	 1	 0	 69	 1	 1.1	 0.9;
	 148	 1	 7.25	 1.25	 0	 0	 8	 1	 0	 138	 1	 1.1	 0.9;
	 149	 1	 8.52	 0.98	 0	 0	 8	 1	 0	 138	 1	 1.1	 0.9;
	 150	 1	 7.2	 1.38	 0	 0	 8	 1	 0	 138	 1	 1.1	 0.9;
	 151	 1	 5.75	 1.48	 0	 0	 8	 1	 0	 69	 1	 1.1	 0.9;
	 152	 1	 5.46	 0.87	 0	 0	 8	 1	 0	 138	 1	 1.1	 0.9;
	 153	 1	 0	 0	 0	 0	 8	 1	 0	 138	 1	 1.1	 0.9;
	 154	 1	 10.13	 1.21	 0	 0	 8	 1	 0	 69	 1	 1.1	 0.9;
	 155	 1	 4.6	 1.04	 0	 0	 8	 1	 0	 138	 1	 1.1	 0.9;
	 156	 1	 8.37	 1.54	 0	 0	 8	 1	 0	 69	 1	 1.1	 0.9;
	 157	 1	 9.73	 2.74	 0	 0	 8	 1	 0	 138	 1	 1.1	 0.9;
	 158	 1	 5.19	 0.93	 0	 0	 8	 1	 0	 69	 1	 1.1	 0.9;
	 159	 1	 0	 0	 0	 0	 8	 1	 0	 138	 1	 1.1	 0.9;
	 160	 1	 3.23	 0.76	 0	 0	 8	 1	 0	 69	 1	 1.1	 0.9;
	 161	 1	 0	 0	 0	 0	 8	 1	 0	 138	 1	 1.1	 0.9;
	 162	 1	 8.3	 1.73	 0	 0	 8	 1	 0	 138	 1	 1.1	 0.9;
	 163	 1	 0	 0	 0	 0	 8	 1	 0	 345	 1	 1.1	 0.9;
	 164	 1	 3.34	 0.76	 0	 27	 8	 1	 0	 345	 1	 1.1	 0.9;
	 165	 1	 12.64	 3.3	 0	 10.1	 8	 1	 0	 345	 1	 1.1	 0.9;
	 166	 1	 0	 0	 0	 0	 8	 1	 0	 138	 1	 1.1	 0.9;
	 167	 1	 0	 0	 0	 0	 8	 1	 0	 138	 1	 1.1	 0.9;
	 168	 1	 6.43	 1.41	 0	 0	 8	 1	 0	 69	 1	 1.1	 0.9;
	 169	 1	 6.84	 1.3	 0	 0	 8	 1	 0	 69	 1	 1.1	 0.9;
	 170	 1	 13.13	 2.5	 0	 0	 8	 1	 0	 69	 1	 1.1	 0.9;
	 171	 1	 4.44	 0.77	 0	 0	 8	 1	 0	 69	 1	 1.1	 0.9;
	 172	 1	 15.38	 2.64	 0	 0	 8	 1	 0	 69	 1	 1.1	 0.9;
	 173	 1	 5.22	 0.65	 0	 0	 8	 1	 0	 69	 1	 1.1	 0.9;
	 174	 1	 4.08	 0.72	 0	 0	 8	 1	 0	 69	 1	 1.1	 0.9;
	 175	 1	 5.9	 1.39	 0	 0	 8	 1	 0	 69	 1	 1.1	 0.9;
	 176	 1	 5.55	 0.91	 0	 0	 8	 1	 0	 69	 1	 1.1	 0.9;
	 177	 1	 0	 0	 0	 0	 8	 1	 0	 138	 1	 1.1	 0.9;
	 178	 1	 4.95	 1.15	 0	 0	 8	 1	 0	 69	 1	 1.1	 0.9;
	 179	 1	 14.11	 3.51	 0	 0	 8	 1	 0	 138	 1	 1.1	 0.9;
	 180	 1	 9.48	 1.42	 0	 0	 8	 1	 0	 138	 1	 1.1	 0.9;
	 181	 1	 0	 0	 0	 0	 8	 1	 0	 138	 1	 1.1	 0.9;
	 182	 1	 17.37	 2.41	 0	 0	 8	 1	 0	 69	 1	 1.1	 0.9;
	 183	 1	 9.14	 1.17	 0	 0	 8	 1	 0	 69	 1	 1.1	 0.9;
	 184	 1	 23.46	 3.4	 0	 0	 8	 1	 0	 69	 1	 1.1	 0.9;
	 185	 1	 11.12	 3.12	 0	 0	 8	 1	 0	 69	 1	 1.1	 0.9;
	 186	 1	 8.95	 2.19	 0	 0	 8	 1	 0	 69	 1	 1.1	 0.9;
	 187	 1	 5.47	 1.46	 0	 0	 8	 1	 0	 69	 1	 1.1	 0.9;
	 188	 1	 7.09	 1.52	 0	 0	 8	 1	 0	 138	 1	 1.1	 0.9;
	 189	 1	 12.37	 0	 0	 0	 8	 1	 0	 69	 1	 1.1	 0.9;
	 190	 1	 2.6	 0	 0	 0	 8	 1	 0	 69	 1	 1.1	 0.9;
	 191	 1	 4.91	 0	 0	 0	 8	 1	 0	 69	 1	 1.1	 0.9;
	 192	 1	 10.21	 0	 0	 0	 8	 1	 0	 69	 1	 1.1	 0.9;
...